
---------- Begin Simulation Statistics ----------
sim_seconds                                  0.090354                       # Number of seconds simulated
sim_ticks                                 90353881000                       # Number of ticks simulated
final_tick                                90353881000                       # Number of ticks from beginning of simulation (restored from checkpoints and never reset)
sim_freq                                 1000000000000                       # Frequency of simulated ticks
host_inst_rate                                 789803                       # Simulator instruction rate (inst/s)
host_op_rate                                  1300436                       # Simulator op (including micro ops) rate (op/s)
host_tick_rate                             1600324508                       # Simulator tick rate (ticks/s)
host_mem_usage                                 663228                       # Number of bytes of host memory used
host_seconds                                    56.46                       # Real time elapsed on the host
sim_insts                                    44592025                       # Number of instructions simulated
sim_ops                                      73422276                       # Number of ops (including micro ops) simulated
system.voltage_domain.voltage                       1                       # Voltage in Volts
system.clk_domain.clock                          1000                       # Clock period in ticks
system.mem_ctrls.pwrStateResidencyTicks::UNDEFINED  90353881000                       # Cumulative time (in ticks) in various power states
system.mem_ctrls.bytes_read::cpu.inst           26752                       # Number of bytes read from this memory
system.mem_ctrls.bytes_read::cpu.data          817024                       # Number of bytes read from this memory
system.mem_ctrls.bytes_read::total             843776                       # Number of bytes read from this memory
system.mem_ctrls.bytes_inst_read::cpu.inst        26752                       # Number of instructions bytes read from this memory
system.mem_ctrls.bytes_inst_read::total         26752                       # Number of instructions bytes read from this memory
system.mem_ctrls.bytes_written::writebacks       490240                       # Number of bytes written to this memory
system.mem_ctrls.bytes_written::total          490240                       # Number of bytes written to this memory
system.mem_ctrls.num_reads::cpu.inst              418                       # Number of read requests responded to by this memory
system.mem_ctrls.num_reads::cpu.data            12766                       # Number of read requests responded to by this memory
system.mem_ctrls.num_reads::total               13184                       # Number of read requests responded to by this memory
system.mem_ctrls.num_writes::writebacks          7660                       # Number of write requests responded to by this memory
system.mem_ctrls.num_writes::total               7660                       # Number of write requests responded to by this memory
system.mem_ctrls.bw_read::cpu.inst             296080                       # Total read bandwidth from this memory (bytes/s)
system.mem_ctrls.bw_read::cpu.data            9042489                       # Total read bandwidth from this memory (bytes/s)
system.mem_ctrls.bw_read::total               9338570                       # Total read bandwidth from this memory (bytes/s)
system.mem_ctrls.bw_inst_read::cpu.inst        296080                       # Instruction read bandwidth from this memory (bytes/s)
system.mem_ctrls.bw_inst_read::total           296080                       # Instruction read bandwidth from this memory (bytes/s)
system.mem_ctrls.bw_write::writebacks         5425777                       # Write bandwidth from this memory (bytes/s)
system.mem_ctrls.bw_write::total              5425777                       # Write bandwidth from this memory (bytes/s)
system.mem_ctrls.bw_total::writebacks         5425777                       # Total bandwidth to/from this memory (bytes/s)
system.mem_ctrls.bw_total::cpu.inst            296080                       # Total bandwidth to/from this memory (bytes/s)
system.mem_ctrls.bw_total::cpu.data           9042489                       # Total bandwidth to/from this memory (bytes/s)
system.mem_ctrls.bw_total::total             14764346                       # Total bandwidth to/from this memory (bytes/s)
system.pwrStateResidencyTicks::UNDEFINED  90353881000                       # Cumulative time (in ticks) in various power states
system.cpu_voltage_domain.voltage                   1                       # Voltage in Volts
system.cpu_clk_domain.clock                       500                       # Clock period in ticks
system.cpu.dtb.walker.pwrStateResidencyTicks::UNDEFINED  90353881000                       # Cumulative time (in ticks) in various power states
system.cpu.dtb.rdAccesses                    20878308                       # TLB accesses on read requests
system.cpu.dtb.wrAccesses                     5816847                       # TLB accesses on write requests
system.cpu.dtb.rdMisses                           169                       # TLB misses on read requests
system.cpu.dtb.wrMisses                           107                       # TLB misses on write requests
system.cpu.apic_clk_domain.clock                 8000                       # Clock period in ticks
system.cpu.interrupts.pwrStateResidencyTicks::UNDEFINED  90353881000                       # Cumulative time (in ticks) in various power states
system.cpu.itb.walker.pwrStateResidencyTicks::UNDEFINED  90353881000                       # Cumulative time (in ticks) in various power states
system.cpu.itb.rdAccesses                           0                       # TLB accesses on read requests
system.cpu.itb.wrAccesses                    59919831                       # TLB accesses on write requests
system.cpu.itb.rdMisses                             0                       # TLB misses on read requests
system.cpu.itb.wrMisses                            42                       # TLB misses on write requests
system.cpu.workload.numSyscalls                    11                       # Number of system calls
system.cpu.pwrStateResidencyTicks::ON     90353881000                       # Cumulative time (in ticks) in various power states
system.cpu.numCycles                        180707762                       # number of cpu cycles simulated
system.cpu.numWorkItemsStarted                      0                       # number of work items this cpu started
system.cpu.numWorkItemsCompleted                    0                       # number of work items this cpu completed
system.cpu.committedInsts                    44592025                       # Number of instructions committed
system.cpu.committedOps                      73422276                       # Number of ops (including micro ops) committed
system.cpu.num_int_alu_accesses              72900333                       # Number of integer alu accesses
system.cpu.num_fp_alu_accesses                   1991                       # Number of float alu accesses
system.cpu.num_vec_alu_accesses                     0                       # Number of vector alu accesses
system.cpu.num_func_calls                      944988                       # number of times a function call or return occured
system.cpu.num_conditional_control_insts      4232892                       # number of instructions that are conditional controls
system.cpu.num_int_insts                     72900333                       # number of integer instructions
system.cpu.num_fp_insts                          1991                       # number of float instructions
system.cpu.num_vec_insts                            0                       # number of vector instructions
system.cpu.num_int_register_reads           163700123                       # number of times the integer registers were read
system.cpu.num_int_register_writes           63689963                       # number of times the integer registers were written
system.cpu.num_fp_register_reads                 3827                       # number of times the floating registers were read
system.cpu.num_fp_register_writes                1508                       # number of times the floating registers were written
system.cpu.num_vec_register_reads                   0                       # number of times the vector registers were read
system.cpu.num_vec_register_writes                  0                       # number of times the vector registers were written
system.cpu.num_cc_register_reads             27639252                       # number of times the CC registers were read
system.cpu.num_cc_register_writes            24934373                       # number of times the CC registers were written
system.cpu.num_mem_refs                      26695151                       # number of memory refs
system.cpu.num_load_insts                    20878305                       # Number of load instructions
system.cpu.num_store_insts                    5816846                       # Number of store instructions
system.cpu.num_idle_cycles                          0                       # Number of idle cycles
system.cpu.num_busy_cycles                  180707762                       # Number of busy cycles
system.cpu.not_idle_fraction                        1                       # Percentage of non-idle cycles
system.cpu.idle_fraction                            0                       # Percentage of idle cycles
system.cpu.Branches                           5575281                       # Number of branches fetched
system.cpu.op_class::No_OpClass                175849      0.24%      0.24% # Class of executed instruction
system.cpu.op_class::IntAlu                  45547287     62.03%     62.27% # Class of executed instruction
system.cpu.op_class::IntMult                        4      0.00%     62.27% # Class of executed instruction
system.cpu.op_class::IntDiv                   1003001      1.37%     63.64% # Class of executed instruction
system.cpu.op_class::FloatAdd                      10      0.00%     63.64% # Class of executed instruction
system.cpu.op_class::FloatCmp                       0      0.00%     63.64% # Class of executed instruction
system.cpu.op_class::FloatCvt                       0      0.00%     63.64% # Class of executed instruction
system.cpu.op_class::FloatMult                      0      0.00%     63.64% # Class of executed instruction
system.cpu.op_class::FloatMultAcc                   0      0.00%     63.64% # Class of executed instruction
system.cpu.op_class::FloatDiv                       0      0.00%     63.64% # Class of executed instruction
system.cpu.op_class::FloatMisc                      0      0.00%     63.64% # Class of executed instruction
system.cpu.op_class::FloatSqrt                      0      0.00%     63.64% # Class of executed instruction
system.cpu.op_class::SimdAdd                      374      0.00%     63.64% # Class of executed instruction
system.cpu.op_class::SimdAddAcc                     0      0.00%     63.64% # Class of executed instruction
system.cpu.op_class::SimdAlu                       76      0.00%     63.64% # Class of executed instruction
system.cpu.op_class::SimdCmp                        0      0.00%     63.64% # Class of executed instruction
system.cpu.op_class::SimdCvt                      116      0.00%     63.64% # Class of executed instruction
system.cpu.op_class::SimdMisc                     222      0.00%     63.64% # Class of executed instruction
system.cpu.op_class::SimdMult                       0      0.00%     63.64% # Class of executed instruction
system.cpu.op_class::SimdMultAcc                    0      0.00%     63.64% # Class of executed instruction
system.cpu.op_class::SimdShift                    186      0.00%     63.64% # Class of executed instruction
system.cpu.op_class::SimdShiftAcc                   0      0.00%     63.64% # Class of executed instruction
system.cpu.op_class::SimdSqrt                       0      0.00%     63.64% # Class of executed instruction
system.cpu.op_class::SimdFloatAdd                   0      0.00%     63.64% # Class of executed instruction
system.cpu.op_class::SimdFloatAlu                   0      0.00%     63.64% # Class of executed instruction
system.cpu.op_class::SimdFloatCmp                   0      0.00%     63.64% # Class of executed instruction
system.cpu.op_class::SimdFloatCvt                   0      0.00%     63.64% # Class of executed instruction
system.cpu.op_class::SimdFloatDiv                   0      0.00%     63.64% # Class of executed instruction
system.cpu.op_class::SimdFloatMisc                  0      0.00%     63.64% # Class of executed instruction
system.cpu.op_class::SimdFloatMult                  0      0.00%     63.64% # Class of executed instruction
system.cpu.op_class::SimdFloatMultAcc               0      0.00%     63.64% # Class of executed instruction
system.cpu.op_class::SimdFloatSqrt                  0      0.00%     63.64% # Class of executed instruction
system.cpu.op_class::MemRead                 20878237     28.44%     92.08% # Class of executed instruction
system.cpu.op_class::MemWrite                 5816419      7.92%    100.00% # Class of executed instruction
system.cpu.op_class::FloatMemRead                  68      0.00%    100.00% # Class of executed instruction
system.cpu.op_class::FloatMemWrite                427      0.00%    100.00% # Class of executed instruction
system.cpu.op_class::IprAccess                      0      0.00%    100.00% # Class of executed instruction
system.cpu.op_class::InstPrefetch                   0      0.00%    100.00% # Class of executed instruction
system.cpu.op_class::total                   73422276                       # Class of executed instruction
system.cpu.dcache.tags.pwrStateResidencyTicks::UNDEFINED  90353881000                       # Cumulative time (in ticks) in various power states
system.cpu.dcache.tags.tagsinuse           510.003608                       # Cycle average of tags in use
system.cpu.dcache.tags.total_refs            26695155                       # Total number of references to valid blocks.
system.cpu.dcache.tags.sampled_refs             45444                       # Sample count of references to valid blocks.
system.cpu.dcache.tags.avg_refs            587.429694                       # Average number of references to valid blocks.
system.cpu.dcache.tags.warmup_cycle            759000                       # Cycle when the warmup percentage was hit.
system.cpu.dcache.tags.occ_blocks::cpu.data   510.003608                       # Average occupied blocks per requestor
system.cpu.dcache.tags.occ_percent::cpu.data     0.996101                       # Average percentage of cache occupancy
system.cpu.dcache.tags.occ_percent::total     0.996101                       # Average percentage of cache occupancy
system.cpu.dcache.tags.occ_task_id_blocks::1024          512                       # Occupied blocks per task id
system.cpu.dcache.tags.age_task_id_blocks_1024::0            8                       # Occupied blocks per task id
system.cpu.dcache.tags.age_task_id_blocks_1024::1           37                       # Occupied blocks per task id
system.cpu.dcache.tags.age_task_id_blocks_1024::2           33                       # Occupied blocks per task id
system.cpu.dcache.tags.age_task_id_blocks_1024::3          432                       # Occupied blocks per task id
system.cpu.dcache.tags.age_task_id_blocks_1024::4            2                       # Occupied blocks per task id
system.cpu.dcache.tags.occ_task_id_percent::1024            1                       # Percentage of cache occupancy per task id
system.cpu.dcache.tags.tag_accesses          53435754                       # Number of tag accesses
system.cpu.dcache.tags.data_accesses         53435754                       # Number of data accesses
system.cpu.dcache.pwrStateResidencyTicks::UNDEFINED  90353881000                       # Cumulative time (in ticks) in various power states
system.cpu.dcache.ReadReq_hits::cpu.data     20839564                       # number of ReadReq hits
system.cpu.dcache.ReadReq_hits::total        20839564                       # number of ReadReq hits
system.cpu.dcache.WriteReq_hits::cpu.data      5800081                       # number of WriteReq hits
system.cpu.dcache.WriteReq_hits::total        5800081                       # number of WriteReq hits
system.cpu.dcache.demand_hits::cpu.data      26639645                       # number of demand (read+write) hits
system.cpu.dcache.demand_hits::total         26639645                       # number of demand (read+write) hits
system.cpu.dcache.overall_hits::cpu.data     26639645                       # number of overall hits
system.cpu.dcache.overall_hits::total        26639645                       # number of overall hits
system.cpu.dcache.ReadReq_misses::cpu.data        38744                       # number of ReadReq misses
system.cpu.dcache.ReadReq_misses::total         38744                       # number of ReadReq misses
system.cpu.dcache.WriteReq_misses::cpu.data        16766                       # number of WriteReq misses
system.cpu.dcache.WriteReq_misses::total        16766                       # number of WriteReq misses
system.cpu.dcache.demand_misses::cpu.data        55510                       # number of demand (read+write) misses
system.cpu.dcache.demand_misses::total          55510                       # number of demand (read+write) misses
system.cpu.dcache.overall_misses::cpu.data        55510                       # number of overall misses
system.cpu.dcache.overall_misses::total         55510                       # number of overall misses
system.cpu.dcache.ReadReq_miss_latency::cpu.data   2844922000                       # number of ReadReq miss cycles
system.cpu.dcache.ReadReq_miss_latency::total   2844922000                       # number of ReadReq miss cycles
system.cpu.dcache.WriteReq_miss_latency::cpu.data    866430000                       # number of WriteReq miss cycles
system.cpu.dcache.WriteReq_miss_latency::total    866430000                       # number of WriteReq miss cycles
system.cpu.dcache.demand_miss_latency::cpu.data   3711352000                       # number of demand (read+write) miss cycles
system.cpu.dcache.demand_miss_latency::total   3711352000                       # number of demand (read+write) miss cycles
system.cpu.dcache.overall_miss_latency::cpu.data   3711352000                       # number of overall miss cycles
system.cpu.dcache.overall_miss_latency::total   3711352000                       # number of overall miss cycles
system.cpu.dcache.ReadReq_accesses::cpu.data     20878308                       # number of ReadReq accesses(hits+misses)
system.cpu.dcache.ReadReq_accesses::total     20878308                       # number of ReadReq accesses(hits+misses)
system.cpu.dcache.WriteReq_accesses::cpu.data      5816847                       # number of WriteReq accesses(hits+misses)
system.cpu.dcache.WriteReq_accesses::total      5816847                       # number of WriteReq accesses(hits+misses)
system.cpu.dcache.demand_accesses::cpu.data     26695155                       # number of demand (read+write) accesses
system.cpu.dcache.demand_accesses::total     26695155                       # number of demand (read+write) accesses
system.cpu.dcache.overall_accesses::cpu.data     26695155                       # number of overall (read+write) accesses
system.cpu.dcache.overall_accesses::total     26695155                       # number of overall (read+write) accesses
system.cpu.dcache.ReadReq_miss_rate::cpu.data     0.001856                       # miss rate for ReadReq accesses
system.cpu.dcache.ReadReq_miss_rate::total     0.001856                       # miss rate for ReadReq accesses
system.cpu.dcache.WriteReq_miss_rate::cpu.data     0.002882                       # miss rate for WriteReq accesses
system.cpu.dcache.WriteReq_miss_rate::total     0.002882                       # miss rate for WriteReq accesses
system.cpu.dcache.demand_miss_rate::cpu.data     0.002079                       # miss rate for demand accesses
system.cpu.dcache.demand_miss_rate::total     0.002079                       # miss rate for demand accesses
system.cpu.dcache.overall_miss_rate::cpu.data     0.002079                       # miss rate for overall accesses
system.cpu.dcache.overall_miss_rate::total     0.002079                       # miss rate for overall accesses
system.cpu.dcache.ReadReq_avg_miss_latency::cpu.data 73428.711542                       # average ReadReq miss latency
system.cpu.dcache.ReadReq_avg_miss_latency::total 73428.711542                       # average ReadReq miss latency
system.cpu.dcache.WriteReq_avg_miss_latency::cpu.data 51677.800310                       # average WriteReq miss latency
system.cpu.dcache.WriteReq_avg_miss_latency::total 51677.800310                       # average WriteReq miss latency
system.cpu.dcache.demand_avg_miss_latency::cpu.data 66859.160512                       # average overall miss latency
system.cpu.dcache.demand_avg_miss_latency::total 66859.160512                       # average overall miss latency
system.cpu.dcache.overall_avg_miss_latency::cpu.data 66859.160512                       # average overall miss latency
system.cpu.dcache.overall_avg_miss_latency::total 66859.160512                       # average overall miss latency
system.cpu.dcache.blocked_cycles::no_mshrs            0                       # number of cycles access was blocked
system.cpu.dcache.blocked_cycles::no_targets            0                       # number of cycles access was blocked
system.cpu.dcache.blocked::no_mshrs                 0                       # number of cycles access was blocked
system.cpu.dcache.blocked::no_targets               0                       # number of cycles access was blocked
system.cpu.dcache.avg_blocked_cycles::no_mshrs          nan                       # average number of cycles each access was blocked
system.cpu.dcache.avg_blocked_cycles::no_targets          nan                       # average number of cycles each access was blocked
system.cpu.dcache.writebacks::writebacks        43432                       # number of writebacks
system.cpu.dcache.writebacks::total             43432                       # number of writebacks
system.cpu.dcache.ReadReq_mshr_misses::cpu.data        38744                       # number of ReadReq MSHR misses
system.cpu.dcache.ReadReq_mshr_misses::total        38744                       # number of ReadReq MSHR misses
system.cpu.dcache.WriteReq_mshr_misses::cpu.data        16766                       # number of WriteReq MSHR misses
system.cpu.dcache.WriteReq_mshr_misses::total        16766                       # number of WriteReq MSHR misses
system.cpu.dcache.demand_mshr_misses::cpu.data        55510                       # number of demand (read+write) MSHR misses
system.cpu.dcache.demand_mshr_misses::total        55510                       # number of demand (read+write) MSHR misses
system.cpu.dcache.overall_mshr_misses::cpu.data        55510                       # number of overall MSHR misses
system.cpu.dcache.overall_mshr_misses::total        55510                       # number of overall MSHR misses
system.cpu.dcache.ReadReq_mshr_miss_latency::cpu.data   2806178000                       # number of ReadReq MSHR miss cycles
system.cpu.dcache.ReadReq_mshr_miss_latency::total   2806178000                       # number of ReadReq MSHR miss cycles
system.cpu.dcache.WriteReq_mshr_miss_latency::cpu.data    849664000                       # number of WriteReq MSHR miss cycles
system.cpu.dcache.WriteReq_mshr_miss_latency::total    849664000                       # number of WriteReq MSHR miss cycles
system.cpu.dcache.demand_mshr_miss_latency::cpu.data   3655842000                       # number of demand (read+write) MSHR miss cycles
system.cpu.dcache.demand_mshr_miss_latency::total   3655842000                       # number of demand (read+write) MSHR miss cycles
system.cpu.dcache.overall_mshr_miss_latency::cpu.data   3655842000                       # number of overall MSHR miss cycles
system.cpu.dcache.overall_mshr_miss_latency::total   3655842000                       # number of overall MSHR miss cycles
system.cpu.dcache.ReadReq_mshr_miss_rate::cpu.data     0.001856                       # mshr miss rate for ReadReq accesses
system.cpu.dcache.ReadReq_mshr_miss_rate::total     0.001856                       # mshr miss rate for ReadReq accesses
system.cpu.dcache.WriteReq_mshr_miss_rate::cpu.data     0.002882                       # mshr miss rate for WriteReq accesses
system.cpu.dcache.WriteReq_mshr_miss_rate::total     0.002882                       # mshr miss rate for WriteReq accesses
system.cpu.dcache.demand_mshr_miss_rate::cpu.data     0.002079                       # mshr miss rate for demand accesses
system.cpu.dcache.demand_mshr_miss_rate::total     0.002079                       # mshr miss rate for demand accesses
system.cpu.dcache.overall_mshr_miss_rate::cpu.data     0.002079                       # mshr miss rate for overall accesses
system.cpu.dcache.overall_mshr_miss_rate::total     0.002079                       # mshr miss rate for overall accesses
system.cpu.dcache.ReadReq_avg_mshr_miss_latency::cpu.data 72428.711542                       # average ReadReq mshr miss latency
system.cpu.dcache.ReadReq_avg_mshr_miss_latency::total 72428.711542                       # average ReadReq mshr miss latency
system.cpu.dcache.WriteReq_avg_mshr_miss_latency::cpu.data 50677.800310                       # average WriteReq mshr miss latency
system.cpu.dcache.WriteReq_avg_mshr_miss_latency::total 50677.800310                       # average WriteReq mshr miss latency
system.cpu.dcache.demand_avg_mshr_miss_latency::cpu.data 65859.160512                       # average overall mshr miss latency
system.cpu.dcache.demand_avg_mshr_miss_latency::total 65859.160512                       # average overall mshr miss latency
system.cpu.dcache.overall_avg_mshr_miss_latency::cpu.data 65859.160512                       # average overall mshr miss latency
system.cpu.dcache.overall_avg_mshr_miss_latency::total 65859.160512                       # average overall mshr miss latency
system.cpu.dcache.replacements                  44932                       # number of replacements
system.cpu.dtb_walker_cache.tags.pwrStateResidencyTicks::UNDEFINED  90353881000                       # Cumulative time (in ticks) in various power states
system.cpu.dtb_walker_cache.tags.tagsinuse            0                       # Cycle average of tags in use
system.cpu.dtb_walker_cache.tags.total_refs            0                       # Total number of references to valid blocks.
system.cpu.dtb_walker_cache.tags.sampled_refs            0                       # Sample count of references to valid blocks.
system.cpu.dtb_walker_cache.tags.avg_refs          nan                       # Average number of references to valid blocks.
system.cpu.dtb_walker_cache.tags.warmup_cycle            0                       # Cycle when the warmup percentage was hit.
system.cpu.dtb_walker_cache.tags.tag_accesses            0                       # Number of tag accesses
system.cpu.dtb_walker_cache.tags.data_accesses            0                       # Number of data accesses
system.cpu.dtb_walker_cache.pwrStateResidencyTicks::UNDEFINED  90353881000                       # Cumulative time (in ticks) in various power states
system.cpu.dtb_walker_cache.blocked_cycles::no_mshrs            0                       # number of cycles access was blocked
system.cpu.dtb_walker_cache.blocked_cycles::no_targets            0                       # number of cycles access was blocked
system.cpu.dtb_walker_cache.blocked::no_mshrs            0                       # number of cycles access was blocked
system.cpu.dtb_walker_cache.blocked::no_targets            0                       # number of cycles access was blocked
system.cpu.dtb_walker_cache.avg_blocked_cycles::no_mshrs          nan                       # average number of cycles each access was blocked
system.cpu.dtb_walker_cache.avg_blocked_cycles::no_targets          nan                       # average number of cycles each access was blocked
system.cpu.dtb_walker_cache.replacements            0                       # number of replacements
system.cpu.icache.tags.pwrStateResidencyTicks::UNDEFINED  90353881000                       # Cumulative time (in ticks) in various power states
system.cpu.icache.tags.tagsinuse           282.284749                       # Cycle average of tags in use
system.cpu.icache.tags.total_refs            59919831                       # Total number of references to valid blocks.
system.cpu.icache.tags.sampled_refs               420                       # Sample count of references to valid blocks.
system.cpu.icache.tags.avg_refs          142666.264286                       # Average number of references to valid blocks.
system.cpu.icache.tags.warmup_cycle            439000                       # Cycle when the warmup percentage was hit.
system.cpu.icache.tags.occ_blocks::cpu.inst   282.284749                       # Average occupied blocks per requestor
system.cpu.icache.tags.occ_percent::cpu.inst     0.551337                       # Average percentage of cache occupancy
system.cpu.icache.tags.occ_percent::total     0.551337                       # Average percentage of cache occupancy
system.cpu.icache.tags.occ_task_id_blocks::1024          347                       # Occupied blocks per task id
system.cpu.icache.tags.age_task_id_blocks_1024::0           40                       # Occupied blocks per task id
system.cpu.icache.tags.age_task_id_blocks_1024::1           60                       # Occupied blocks per task id
system.cpu.icache.tags.age_task_id_blocks_1024::4          247                       # Occupied blocks per task id
system.cpu.icache.tags.occ_task_id_percent::1024     0.677734                       # Percentage of cache occupancy per task id
system.cpu.icache.tags.tag_accesses         119840082                       # Number of tag accesses
system.cpu.icache.tags.data_accesses        119840082                       # Number of data accesses
system.cpu.icache.pwrStateResidencyTicks::UNDEFINED  90353881000                       # Cumulative time (in ticks) in various power states
system.cpu.icache.ReadReq_hits::cpu.inst     59919411                       # number of ReadReq hits
system.cpu.icache.ReadReq_hits::total        59919411                       # number of ReadReq hits
system.cpu.icache.demand_hits::cpu.inst      59919411                       # number of demand (read+write) hits
system.cpu.icache.demand_hits::total         59919411                       # number of demand (read+write) hits
system.cpu.icache.overall_hits::cpu.inst     59919411                       # number of overall hits
system.cpu.icache.overall_hits::total        59919411                       # number of overall hits
system.cpu.icache.ReadReq_misses::cpu.inst          420                       # number of ReadReq misses
system.cpu.icache.ReadReq_misses::total           420                       # number of ReadReq misses
system.cpu.icache.demand_misses::cpu.inst          420                       # number of demand (read+write) misses
system.cpu.icache.demand_misses::total            420                       # number of demand (read+write) misses
system.cpu.icache.overall_misses::cpu.inst          420                       # number of overall misses
system.cpu.icache.overall_misses::total           420                       # number of overall misses
system.cpu.icache.ReadReq_miss_latency::cpu.inst     83477000                       # number of ReadReq miss cycles
system.cpu.icache.ReadReq_miss_latency::total     83477000                       # number of ReadReq miss cycles
system.cpu.icache.demand_miss_latency::cpu.inst     83477000                       # number of demand (read+write) miss cycles
system.cpu.icache.demand_miss_latency::total     83477000                       # number of demand (read+write) miss cycles
system.cpu.icache.overall_miss_latency::cpu.inst     83477000                       # number of overall miss cycles
system.cpu.icache.overall_miss_latency::total     83477000                       # number of overall miss cycles
system.cpu.icache.ReadReq_accesses::cpu.inst     59919831                       # number of ReadReq accesses(hits+misses)
system.cpu.icache.ReadReq_accesses::total     59919831                       # number of ReadReq accesses(hits+misses)
system.cpu.icache.demand_accesses::cpu.inst     59919831                       # number of demand (read+write) accesses
system.cpu.icache.demand_accesses::total     59919831                       # number of demand (read+write) accesses
system.cpu.icache.overall_accesses::cpu.inst     59919831                       # number of overall (read+write) accesses
system.cpu.icache.overall_accesses::total     59919831                       # number of overall (read+write) accesses
system.cpu.icache.ReadReq_miss_rate::cpu.inst     0.000007                       # miss rate for ReadReq accesses
system.cpu.icache.ReadReq_miss_rate::total     0.000007                       # miss rate for ReadReq accesses
system.cpu.icache.demand_miss_rate::cpu.inst     0.000007                       # miss rate for demand accesses
system.cpu.icache.demand_miss_rate::total     0.000007                       # miss rate for demand accesses
system.cpu.icache.overall_miss_rate::cpu.inst     0.000007                       # miss rate for overall accesses
system.cpu.icache.overall_miss_rate::total     0.000007                       # miss rate for overall accesses
system.cpu.icache.ReadReq_avg_miss_latency::cpu.inst 198754.761905                       # average ReadReq miss latency
system.cpu.icache.ReadReq_avg_miss_latency::total 198754.761905                       # average ReadReq miss latency
system.cpu.icache.demand_avg_miss_latency::cpu.inst 198754.761905                       # average overall miss latency
system.cpu.icache.demand_avg_miss_latency::total 198754.761905                       # average overall miss latency
system.cpu.icache.overall_avg_miss_latency::cpu.inst 198754.761905                       # average overall miss latency
system.cpu.icache.overall_avg_miss_latency::total 198754.761905                       # average overall miss latency
system.cpu.icache.blocked_cycles::no_mshrs            0                       # number of cycles access was blocked
system.cpu.icache.blocked_cycles::no_targets            0                       # number of cycles access was blocked
system.cpu.icache.blocked::no_mshrs                 0                       # number of cycles access was blocked
system.cpu.icache.blocked::no_targets               0                       # number of cycles access was blocked
system.cpu.icache.avg_blocked_cycles::no_mshrs          nan                       # average number of cycles each access was blocked
system.cpu.icache.avg_blocked_cycles::no_targets          nan                       # average number of cycles each access was blocked
system.cpu.icache.writebacks::writebacks           73                       # number of writebacks
system.cpu.icache.writebacks::total                73                       # number of writebacks
system.cpu.icache.ReadReq_mshr_misses::cpu.inst          420                       # number of ReadReq MSHR misses
system.cpu.icache.ReadReq_mshr_misses::total          420                       # number of ReadReq MSHR misses
system.cpu.icache.demand_mshr_misses::cpu.inst          420                       # number of demand (read+write) MSHR misses
system.cpu.icache.demand_mshr_misses::total          420                       # number of demand (read+write) MSHR misses
system.cpu.icache.overall_mshr_misses::cpu.inst          420                       # number of overall MSHR misses
system.cpu.icache.overall_mshr_misses::total          420                       # number of overall MSHR misses
system.cpu.icache.ReadReq_mshr_miss_latency::cpu.inst     83057000                       # number of ReadReq MSHR miss cycles
system.cpu.icache.ReadReq_mshr_miss_latency::total     83057000                       # number of ReadReq MSHR miss cycles
system.cpu.icache.demand_mshr_miss_latency::cpu.inst     83057000                       # number of demand (read+write) MSHR miss cycles
system.cpu.icache.demand_mshr_miss_latency::total     83057000                       # number of demand (read+write) MSHR miss cycles
system.cpu.icache.overall_mshr_miss_latency::cpu.inst     83057000                       # number of overall MSHR miss cycles
system.cpu.icache.overall_mshr_miss_latency::total     83057000                       # number of overall MSHR miss cycles
system.cpu.icache.ReadReq_mshr_miss_rate::cpu.inst     0.000007                       # mshr miss rate for ReadReq accesses
system.cpu.icache.ReadReq_mshr_miss_rate::total     0.000007                       # mshr miss rate for ReadReq accesses
system.cpu.icache.demand_mshr_miss_rate::cpu.inst     0.000007                       # mshr miss rate for demand accesses
system.cpu.icache.demand_mshr_miss_rate::total     0.000007                       # mshr miss rate for demand accesses
system.cpu.icache.overall_mshr_miss_rate::cpu.inst     0.000007                       # mshr miss rate for overall accesses
system.cpu.icache.overall_mshr_miss_rate::total     0.000007                       # mshr miss rate for overall accesses
system.cpu.icache.ReadReq_avg_mshr_miss_latency::cpu.inst 197754.761905                       # average ReadReq mshr miss latency
system.cpu.icache.ReadReq_avg_mshr_miss_latency::total 197754.761905                       # average ReadReq mshr miss latency
system.cpu.icache.demand_avg_mshr_miss_latency::cpu.inst 197754.761905                       # average overall mshr miss latency
system.cpu.icache.demand_avg_mshr_miss_latency::total 197754.761905                       # average overall mshr miss latency
system.cpu.icache.overall_avg_mshr_miss_latency::cpu.inst 197754.761905                       # average overall mshr miss latency
system.cpu.icache.overall_avg_mshr_miss_latency::total 197754.761905                       # average overall mshr miss latency
system.cpu.icache.replacements                     73                       # number of replacements
system.cpu.itb_walker_cache.tags.pwrStateResidencyTicks::UNDEFINED  90353881000                       # Cumulative time (in ticks) in various power states
system.cpu.itb_walker_cache.tags.tagsinuse            0                       # Cycle average of tags in use
system.cpu.itb_walker_cache.tags.total_refs            0                       # Total number of references to valid blocks.
system.cpu.itb_walker_cache.tags.sampled_refs            0                       # Sample count of references to valid blocks.
system.cpu.itb_walker_cache.tags.avg_refs          nan                       # Average number of references to valid blocks.
system.cpu.itb_walker_cache.tags.warmup_cycle            0                       # Cycle when the warmup percentage was hit.
system.cpu.itb_walker_cache.tags.tag_accesses            0                       # Number of tag accesses
system.cpu.itb_walker_cache.tags.data_accesses            0                       # Number of data accesses
system.cpu.itb_walker_cache.pwrStateResidencyTicks::UNDEFINED  90353881000                       # Cumulative time (in ticks) in various power states
system.cpu.itb_walker_cache.blocked_cycles::no_mshrs            0                       # number of cycles access was blocked
system.cpu.itb_walker_cache.blocked_cycles::no_targets            0                       # number of cycles access was blocked
system.cpu.itb_walker_cache.blocked::no_mshrs            0                       # number of cycles access was blocked
system.cpu.itb_walker_cache.blocked::no_targets            0                       # number of cycles access was blocked
system.cpu.itb_walker_cache.avg_blocked_cycles::no_mshrs          nan                       # average number of cycles each access was blocked
system.cpu.itb_walker_cache.avg_blocked_cycles::no_targets          nan                       # average number of cycles each access was blocked
system.cpu.itb_walker_cache.replacements            0                       # number of replacements
system.l2.tags.pwrStateResidencyTicks::UNDEFINED  90353881000                       # Cumulative time (in ticks) in various power states
system.l2.tags.tagsinuse                  2018.911605                       # Cycle average of tags in use
system.l2.tags.total_refs                      100935                       # Total number of references to valid blocks.
system.l2.tags.sampled_refs                     24295                       # Sample count of references to valid blocks.
system.l2.tags.avg_refs                      4.154559                       # Average number of references to valid blocks.
system.l2.tags.warmup_cycle                    428500                       # Cycle when the warmup percentage was hit.
system.l2.tags.occ_blocks::writebacks        1.420149                       # Average occupied blocks per requestor
system.l2.tags.occ_blocks::cpu.inst         11.378674                       # Average occupied blocks per requestor
system.l2.tags.occ_blocks::cpu.data       2006.112783                       # Average occupied blocks per requestor
system.l2.tags.occ_percent::writebacks       0.000693                       # Average percentage of cache occupancy
system.l2.tags.occ_percent::cpu.inst         0.005556                       # Average percentage of cache occupancy
system.l2.tags.occ_percent::cpu.data         0.979547                       # Average percentage of cache occupancy
system.l2.tags.occ_percent::total            0.985797                       # Average percentage of cache occupancy
system.l2.tags.occ_task_id_blocks::1024          2048                       # Occupied blocks per task id
system.l2.tags.age_task_id_blocks_1024::0           59                       # Occupied blocks per task id
system.l2.tags.age_task_id_blocks_1024::1          121                       # Occupied blocks per task id
system.l2.tags.age_task_id_blocks_1024::2           33                       # Occupied blocks per task id
system.l2.tags.age_task_id_blocks_1024::3           59                       # Occupied blocks per task id
system.l2.tags.age_task_id_blocks_1024::4         1776                       # Occupied blocks per task id
system.l2.tags.occ_task_id_percent::1024            1                       # Percentage of cache occupancy per task id
system.l2.tags.tag_accesses                    831775                       # Number of tag accesses
system.l2.tags.data_accesses                   831775                       # Number of data accesses
system.l2.pwrStateResidencyTicks::UNDEFINED  90353881000                       # Cumulative time (in ticks) in various power states
system.l2.WritebackDirty_hits::writebacks        43432                       # number of WritebackDirty hits
system.l2.WritebackDirty_hits::total            43432                       # number of WritebackDirty hits
system.l2.WritebackClean_hits::writebacks           73                       # number of WritebackClean hits
system.l2.WritebackClean_hits::total               73                       # number of WritebackClean hits
system.l2.UpgradeReq_hits::cpu.data             10066                       # number of UpgradeReq hits
system.l2.UpgradeReq_hits::total                10066                       # number of UpgradeReq hits
system.l2.ReadExReq_hits::cpu.data                259                       # number of ReadExReq hits
system.l2.ReadExReq_hits::total                   259                       # number of ReadExReq hits
system.l2.ReadCleanReq_hits::cpu.inst               2                       # number of ReadCleanReq hits
system.l2.ReadCleanReq_hits::total                  2                       # number of ReadCleanReq hits
system.l2.ReadSharedReq_hits::cpu.data          21358                       # number of ReadSharedReq hits
system.l2.ReadSharedReq_hits::total             21358                       # number of ReadSharedReq hits
system.l2.demand_hits::cpu.inst                     2                       # number of demand (read+write) hits
system.l2.demand_hits::cpu.data                 21617                       # number of demand (read+write) hits
system.l2.demand_hits::total                    21619                       # number of demand (read+write) hits
system.l2.overall_hits::cpu.inst                    2                       # number of overall hits
system.l2.overall_hits::cpu.data                21617                       # number of overall hits
system.l2.overall_hits::total                   21619                       # number of overall hits
system.l2.ReadExReq_misses::cpu.data             6441                       # number of ReadExReq misses
system.l2.ReadExReq_misses::total                6441                       # number of ReadExReq misses
system.l2.ReadCleanReq_misses::cpu.inst           418                       # number of ReadCleanReq misses
system.l2.ReadCleanReq_misses::total              418                       # number of ReadCleanReq misses
system.l2.ReadSharedReq_misses::cpu.data        17386                       # number of ReadSharedReq misses
system.l2.ReadSharedReq_misses::total           17386                       # number of ReadSharedReq misses
system.l2.demand_misses::cpu.inst                 418                       # number of demand (read+write) misses
system.l2.demand_misses::cpu.data               23827                       # number of demand (read+write) misses
system.l2.demand_misses::total                  24245                       # number of demand (read+write) misses
system.l2.overall_misses::cpu.inst                418                       # number of overall misses
system.l2.overall_misses::cpu.data              23827                       # number of overall misses
system.l2.overall_misses::total                 24245                       # number of overall misses
system.l2.ReadExReq_miss_latency::cpu.data    716100500                       # number of ReadExReq miss cycles
system.l2.ReadExReq_miss_latency::total     716100500                       # number of ReadExReq miss cycles
system.l2.ReadCleanReq_miss_latency::cpu.inst     82404000                       # number of ReadCleanReq miss cycles
system.l2.ReadCleanReq_miss_latency::total     82404000                       # number of ReadCleanReq miss cycles
system.l2.ReadSharedReq_miss_latency::cpu.data   2523802000                       # number of ReadSharedReq miss cycles
system.l2.ReadSharedReq_miss_latency::total   2523802000                       # number of ReadSharedReq miss cycles
system.l2.demand_miss_latency::cpu.inst      82404000                       # number of demand (read+write) miss cycles
system.l2.demand_miss_latency::cpu.data    3239902500                       # number of demand (read+write) miss cycles
system.l2.demand_miss_latency::total       3322306500                       # number of demand (read+write) miss cycles
system.l2.overall_miss_latency::cpu.inst     82404000                       # number of overall miss cycles
system.l2.overall_miss_latency::cpu.data   3239902500                       # number of overall miss cycles
system.l2.overall_miss_latency::total      3322306500                       # number of overall miss cycles
system.l2.WritebackDirty_accesses::writebacks        43432                       # number of WritebackDirty accesses(hits+misses)
system.l2.WritebackDirty_accesses::total        43432                       # number of WritebackDirty accesses(hits+misses)
system.l2.WritebackClean_accesses::writebacks           73                       # number of WritebackClean accesses(hits+misses)
system.l2.WritebackClean_accesses::total           73                       # number of WritebackClean accesses(hits+misses)
system.l2.UpgradeReq_accesses::cpu.data         10066                       # number of UpgradeReq accesses(hits+misses)
system.l2.UpgradeReq_accesses::total            10066                       # number of UpgradeReq accesses(hits+misses)
system.l2.ReadExReq_accesses::cpu.data           6700                       # number of ReadExReq accesses(hits+misses)
system.l2.ReadExReq_accesses::total              6700                       # number of ReadExReq accesses(hits+misses)
system.l2.ReadCleanReq_accesses::cpu.inst          420                       # number of ReadCleanReq accesses(hits+misses)
system.l2.ReadCleanReq_accesses::total            420                       # number of ReadCleanReq accesses(hits+misses)
system.l2.ReadSharedReq_accesses::cpu.data        38744                       # number of ReadSharedReq accesses(hits+misses)
system.l2.ReadSharedReq_accesses::total         38744                       # number of ReadSharedReq accesses(hits+misses)
system.l2.demand_accesses::cpu.inst               420                       # number of demand (read+write) accesses
system.l2.demand_accesses::cpu.data             45444                       # number of demand (read+write) accesses
system.l2.demand_accesses::total                45864                       # number of demand (read+write) accesses
system.l2.overall_accesses::cpu.inst              420                       # number of overall (read+write) accesses
system.l2.overall_accesses::cpu.data            45444                       # number of overall (read+write) accesses
system.l2.overall_accesses::total               45864                       # number of overall (read+write) accesses
system.l2.ReadExReq_miss_rate::cpu.data      0.961343                       # miss rate for ReadExReq accesses
system.l2.ReadExReq_miss_rate::total         0.961343                       # miss rate for ReadExReq accesses
system.l2.ReadCleanReq_miss_rate::cpu.inst     0.995238                       # miss rate for ReadCleanReq accesses
system.l2.ReadCleanReq_miss_rate::total      0.995238                       # miss rate for ReadCleanReq accesses
system.l2.ReadSharedReq_miss_rate::cpu.data     0.448740                       # miss rate for ReadSharedReq accesses
system.l2.ReadSharedReq_miss_rate::total     0.448740                       # miss rate for ReadSharedReq accesses
system.l2.demand_miss_rate::cpu.inst         0.995238                       # miss rate for demand accesses
system.l2.demand_miss_rate::cpu.data         0.524316                       # miss rate for demand accesses
system.l2.demand_miss_rate::total            0.528628                       # miss rate for demand accesses
system.l2.overall_miss_rate::cpu.inst        0.995238                       # miss rate for overall accesses
system.l2.overall_miss_rate::cpu.data        0.524316                       # miss rate for overall accesses
system.l2.overall_miss_rate::total           0.528628                       # miss rate for overall accesses
system.l2.ReadExReq_avg_miss_latency::cpu.data 111178.466077                       # average ReadExReq miss latency
system.l2.ReadExReq_avg_miss_latency::total 111178.466077                       # average ReadExReq miss latency
system.l2.ReadCleanReq_avg_miss_latency::cpu.inst 197138.755981                       # average ReadCleanReq miss latency
system.l2.ReadCleanReq_avg_miss_latency::total 197138.755981                       # average ReadCleanReq miss latency
system.l2.ReadSharedReq_avg_miss_latency::cpu.data 145162.889681                       # average ReadSharedReq miss latency
system.l2.ReadSharedReq_avg_miss_latency::total 145162.889681                       # average ReadSharedReq miss latency
system.l2.demand_avg_miss_latency::cpu.inst 197138.755981                       # average overall miss latency
system.l2.demand_avg_miss_latency::cpu.data 135976.098544                       # average overall miss latency
system.l2.demand_avg_miss_latency::total 137030.583625                       # average overall miss latency
system.l2.overall_avg_miss_latency::cpu.inst 197138.755981                       # average overall miss latency
system.l2.overall_avg_miss_latency::cpu.data 135976.098544                       # average overall miss latency
system.l2.overall_avg_miss_latency::total 137030.583625                       # average overall miss latency
system.l2.blocked_cycles::no_mshrs                  0                       # number of cycles access was blocked
system.l2.blocked_cycles::no_targets                0                       # number of cycles access was blocked
system.l2.blocked::no_mshrs                         0                       # number of cycles access was blocked
system.l2.blocked::no_targets                       0                       # number of cycles access was blocked
system.l2.avg_blocked_cycles::no_mshrs            nan                       # average number of cycles each access was blocked
system.l2.avg_blocked_cycles::no_targets          nan                       # average number of cycles each access was blocked
system.l2.writebacks::writebacks                21753                       # number of writebacks
system.l2.writebacks::total                     21753                       # number of writebacks
system.l2.ReadExReq_mshr_misses::cpu.data         6441                       # number of ReadExReq MSHR misses
system.l2.ReadExReq_mshr_misses::total           6441                       # number of ReadExReq MSHR misses
system.l2.ReadCleanReq_mshr_misses::cpu.inst          418                       # number of ReadCleanReq MSHR misses
system.l2.ReadCleanReq_mshr_misses::total          418                       # number of ReadCleanReq MSHR misses
system.l2.ReadSharedReq_mshr_misses::cpu.data        17386                       # number of ReadSharedReq MSHR misses
system.l2.ReadSharedReq_mshr_misses::total        17386                       # number of ReadSharedReq MSHR misses
system.l2.demand_mshr_misses::cpu.inst            418                       # number of demand (read+write) MSHR misses
system.l2.demand_mshr_misses::cpu.data          23827                       # number of demand (read+write) MSHR misses
system.l2.demand_mshr_misses::total             24245                       # number of demand (read+write) MSHR misses
system.l2.overall_mshr_misses::cpu.inst           418                       # number of overall MSHR misses
system.l2.overall_mshr_misses::cpu.data         23827                       # number of overall MSHR misses
system.l2.overall_mshr_misses::total            24245                       # number of overall MSHR misses
system.l2.ReadExReq_mshr_miss_latency::cpu.data    651690500                       # number of ReadExReq MSHR miss cycles
system.l2.ReadExReq_mshr_miss_latency::total    651690500                       # number of ReadExReq MSHR miss cycles
system.l2.ReadCleanReq_mshr_miss_latency::cpu.inst     78224000                       # number of ReadCleanReq MSHR miss cycles
system.l2.ReadCleanReq_mshr_miss_latency::total     78224000                       # number of ReadCleanReq MSHR miss cycles
system.l2.ReadSharedReq_mshr_miss_latency::cpu.data   2349942000                       # number of ReadSharedReq MSHR miss cycles
system.l2.ReadSharedReq_mshr_miss_latency::total   2349942000                       # number of ReadSharedReq MSHR miss cycles
system.l2.demand_mshr_miss_latency::cpu.inst     78224000                       # number of demand (read+write) MSHR miss cycles
system.l2.demand_mshr_miss_latency::cpu.data   3001632500                       # number of demand (read+write) MSHR miss cycles
system.l2.demand_mshr_miss_latency::total   3079856500                       # number of demand (read+write) MSHR miss cycles
system.l2.overall_mshr_miss_latency::cpu.inst     78224000                       # number of overall MSHR miss cycles
system.l2.overall_mshr_miss_latency::cpu.data   3001632500                       # number of overall MSHR miss cycles
system.l2.overall_mshr_miss_latency::total   3079856500                       # number of overall MSHR miss cycles
system.l2.ReadExReq_mshr_miss_rate::cpu.data     0.961343                       # mshr miss rate for ReadExReq accesses
system.l2.ReadExReq_mshr_miss_rate::total     0.961343                       # mshr miss rate for ReadExReq accesses
system.l2.ReadCleanReq_mshr_miss_rate::cpu.inst     0.995238                       # mshr miss rate for ReadCleanReq accesses
system.l2.ReadCleanReq_mshr_miss_rate::total     0.995238                       # mshr miss rate for ReadCleanReq accesses
system.l2.ReadSharedReq_mshr_miss_rate::cpu.data     0.448740                       # mshr miss rate for ReadSharedReq accesses
system.l2.ReadSharedReq_mshr_miss_rate::total     0.448740                       # mshr miss rate for ReadSharedReq accesses
system.l2.demand_mshr_miss_rate::cpu.inst     0.995238                       # mshr miss rate for demand accesses
system.l2.demand_mshr_miss_rate::cpu.data     0.524316                       # mshr miss rate for demand accesses
system.l2.demand_mshr_miss_rate::total       0.528628                       # mshr miss rate for demand accesses
system.l2.overall_mshr_miss_rate::cpu.inst     0.995238                       # mshr miss rate for overall accesses
system.l2.overall_mshr_miss_rate::cpu.data     0.524316                       # mshr miss rate for overall accesses
system.l2.overall_mshr_miss_rate::total      0.528628                       # mshr miss rate for overall accesses
system.l2.ReadExReq_avg_mshr_miss_latency::cpu.data 101178.466077                       # average ReadExReq mshr miss latency
system.l2.ReadExReq_avg_mshr_miss_latency::total 101178.466077                       # average ReadExReq mshr miss latency
system.l2.ReadCleanReq_avg_mshr_miss_latency::cpu.inst 187138.755981                       # average ReadCleanReq mshr miss latency
system.l2.ReadCleanReq_avg_mshr_miss_latency::total 187138.755981                       # average ReadCleanReq mshr miss latency
system.l2.ReadSharedReq_avg_mshr_miss_latency::cpu.data 135162.889681                       # average ReadSharedReq mshr miss latency
system.l2.ReadSharedReq_avg_mshr_miss_latency::total 135162.889681                       # average ReadSharedReq mshr miss latency
system.l2.demand_avg_mshr_miss_latency::cpu.inst 187138.755981                       # average overall mshr miss latency
system.l2.demand_avg_mshr_miss_latency::cpu.data 125976.098544                       # average overall mshr miss latency
system.l2.demand_avg_mshr_miss_latency::total 127030.583625                       # average overall mshr miss latency
system.l2.overall_avg_mshr_miss_latency::cpu.inst 187138.755981                       # average overall mshr miss latency
system.l2.overall_avg_mshr_miss_latency::cpu.data 125976.098544                       # average overall mshr miss latency
system.l2.overall_avg_mshr_miss_latency::total 127030.583625                       # average overall mshr miss latency
system.l2.replacements                          22247                       # number of replacements
system.l3.tags.pwrStateResidencyTicks::UNDEFINED  90353881000                       # Cumulative time (in ticks) in various power states
system.l3.tags.tagsinuse                  3934.129700                       # Cycle average of tags in use
system.l3.tags.total_refs                       46100                       # Total number of references to valid blocks.
system.l3.tags.sampled_refs                     21673                       # Sample count of references to valid blocks.
system.l3.tags.avg_refs                      2.127071                       # Average number of references to valid blocks.
system.l3.tags.warmup_cycle                    418000                       # Cycle when the warmup percentage was hit.
system.l3.tags.occ_blocks::writebacks      789.809092                       # Average occupied blocks per requestor
system.l3.tags.occ_blocks::cpu.inst         26.807645                       # Average occupied blocks per requestor
system.l3.tags.occ_blocks::cpu.data       3117.512964                       # Average occupied blocks per requestor
system.l3.tags.occ_percent::writebacks       0.192824                       # Average percentage of cache occupancy
system.l3.tags.occ_percent::cpu.inst         0.006545                       # Average percentage of cache occupancy
system.l3.tags.occ_percent::cpu.data         0.761112                       # Average percentage of cache occupancy
system.l3.tags.occ_percent::total            0.960481                       # Average percentage of cache occupancy
system.l3.tags.occ_task_id_blocks::1024          4096                       # Occupied blocks per task id
system.l3.tags.age_task_id_blocks_1024::0           53                       # Occupied blocks per task id
system.l3.tags.age_task_id_blocks_1024::1           91                       # Occupied blocks per task id
system.l3.tags.age_task_id_blocks_1024::2           24                       # Occupied blocks per task id
system.l3.tags.age_task_id_blocks_1024::3           39                       # Occupied blocks per task id
system.l3.tags.age_task_id_blocks_1024::4         3889                       # Occupied blocks per task id
system.l3.tags.occ_task_id_percent::1024            1                       # Percentage of cache occupancy per task id
system.l3.tags.tag_accesses                    114063                       # Number of tag accesses
system.l3.tags.data_accesses                   114063                       # Number of data accesses
system.l3.pwrStateResidencyTicks::UNDEFINED  90353881000                       # Cumulative time (in ticks) in various power states
system.l3.WritebackDirty_hits::writebacks        21753                       # number of WritebackDirty hits
system.l3.WritebackDirty_hits::total            21753                       # number of WritebackDirty hits
system.l3.ReadExReq_hits::cpu.data                 40                       # number of ReadExReq hits
system.l3.ReadExReq_hits::total                    40                       # number of ReadExReq hits
system.l3.ReadSharedReq_hits::cpu.data          11021                       # number of ReadSharedReq hits
system.l3.ReadSharedReq_hits::total             11021                       # number of ReadSharedReq hits
system.l3.demand_hits::cpu.data                 11061                       # number of demand (read+write) hits
system.l3.demand_hits::total                    11061                       # number of demand (read+write) hits
system.l3.overall_hits::cpu.data                11061                       # number of overall hits
system.l3.overall_hits::total                   11061                       # number of overall hits
system.l3.ReadExReq_misses::cpu.data             6401                       # number of ReadExReq misses
system.l3.ReadExReq_misses::total                6401                       # number of ReadExReq misses
system.l3.ReadSharedReq_misses::cpu.inst          418                       # number of ReadSharedReq misses
system.l3.ReadSharedReq_misses::cpu.data         6365                       # number of ReadSharedReq misses
system.l3.ReadSharedReq_misses::total            6783                       # number of ReadSharedReq misses
system.l3.demand_misses::cpu.inst                 418                       # number of demand (read+write) misses
system.l3.demand_misses::cpu.data               12766                       # number of demand (read+write) misses
system.l3.demand_misses::total                  13184                       # number of demand (read+write) misses
system.l3.overall_misses::cpu.inst                418                       # number of overall misses
system.l3.overall_misses::cpu.data              12766                       # number of overall misses
system.l3.overall_misses::total                 13184                       # number of overall misses
system.l3.ReadExReq_miss_latency::cpu.data    580419500                       # number of ReadExReq miss cycles
system.l3.ReadExReq_miss_latency::total     580419500                       # number of ReadExReq miss cycles
system.l3.ReadSharedReq_miss_latency::cpu.inst     73626000                       # number of ReadSharedReq miss cycles
system.l3.ReadSharedReq_miss_latency::cpu.data   2035882000                       # number of ReadSharedReq miss cycles
system.l3.ReadSharedReq_miss_latency::total   2109508000                       # number of ReadSharedReq miss cycles
system.l3.demand_miss_latency::cpu.inst      73626000                       # number of demand (read+write) miss cycles
system.l3.demand_miss_latency::cpu.data    2616301500                       # number of demand (read+write) miss cycles
system.l3.demand_miss_latency::total       2689927500                       # number of demand (read+write) miss cycles
system.l3.overall_miss_latency::cpu.inst     73626000                       # number of overall miss cycles
system.l3.overall_miss_latency::cpu.data   2616301500                       # number of overall miss cycles
system.l3.overall_miss_latency::total      2689927500                       # number of overall miss cycles
system.l3.WritebackDirty_accesses::writebacks        21753                       # number of WritebackDirty accesses(hits+misses)
system.l3.WritebackDirty_accesses::total        21753                       # number of WritebackDirty accesses(hits+misses)
system.l3.ReadExReq_accesses::cpu.data           6441                       # number of ReadExReq accesses(hits+misses)
system.l3.ReadExReq_accesses::total              6441                       # number of ReadExReq accesses(hits+misses)
system.l3.ReadSharedReq_accesses::cpu.inst          418                       # number of ReadSharedReq accesses(hits+misses)
system.l3.ReadSharedReq_accesses::cpu.data        17386                       # number of ReadSharedReq accesses(hits+misses)
system.l3.ReadSharedReq_accesses::total         17804                       # number of ReadSharedReq accesses(hits+misses)
system.l3.demand_accesses::cpu.inst               418                       # number of demand (read+write) accesses
system.l3.demand_accesses::cpu.data             23827                       # number of demand (read+write) accesses
system.l3.demand_accesses::total                24245                       # number of demand (read+write) accesses
system.l3.overall_accesses::cpu.inst              418                       # number of overall (read+write) accesses
system.l3.overall_accesses::cpu.data            23827                       # number of overall (read+write) accesses
system.l3.overall_accesses::total               24245                       # number of overall (read+write) accesses
system.l3.ReadExReq_miss_rate::cpu.data      0.993790                       # miss rate for ReadExReq accesses
system.l3.ReadExReq_miss_rate::total         0.993790                       # miss rate for ReadExReq accesses
system.l3.ReadSharedReq_miss_rate::cpu.inst            1                       # miss rate for ReadSharedReq accesses
system.l3.ReadSharedReq_miss_rate::cpu.data     0.366099                       # miss rate for ReadSharedReq accesses
system.l3.ReadSharedReq_miss_rate::total     0.380982                       # miss rate for ReadSharedReq accesses
system.l3.demand_miss_rate::cpu.inst                1                       # miss rate for demand accesses
system.l3.demand_miss_rate::cpu.data         0.535779                       # miss rate for demand accesses
system.l3.demand_miss_rate::total            0.543782                       # miss rate for demand accesses
system.l3.overall_miss_rate::cpu.inst               1                       # miss rate for overall accesses
system.l3.overall_miss_rate::cpu.data        0.535779                       # miss rate for overall accesses
system.l3.overall_miss_rate::total           0.543782                       # miss rate for overall accesses
system.l3.ReadExReq_avg_miss_latency::cpu.data 90676.378691                       # average ReadExReq miss latency
system.l3.ReadExReq_avg_miss_latency::total 90676.378691                       # average ReadExReq miss latency
system.l3.ReadSharedReq_avg_miss_latency::cpu.inst 176138.755981                       # average ReadSharedReq miss latency
system.l3.ReadSharedReq_avg_miss_latency::cpu.data 319855.773763                       # average ReadSharedReq miss latency
system.l3.ReadSharedReq_avg_miss_latency::total 310999.262863                       # average ReadSharedReq miss latency
system.l3.demand_avg_miss_latency::cpu.inst 176138.755981                       # average overall miss latency
system.l3.demand_avg_miss_latency::cpu.data 204942.934357                       # average overall miss latency
system.l3.demand_avg_miss_latency::total 204029.695085                       # average overall miss latency
system.l3.overall_avg_miss_latency::cpu.inst 176138.755981                       # average overall miss latency
system.l3.overall_avg_miss_latency::cpu.data 204942.934357                       # average overall miss latency
system.l3.overall_avg_miss_latency::total 204029.695085                       # average overall miss latency
system.l3.blocked_cycles::no_mshrs                  0                       # number of cycles access was blocked
system.l3.blocked_cycles::no_targets                0                       # number of cycles access was blocked
system.l3.blocked::no_mshrs                         0                       # number of cycles access was blocked
system.l3.blocked::no_targets                       0                       # number of cycles access was blocked
system.l3.avg_blocked_cycles::no_mshrs            nan                       # average number of cycles each access was blocked
system.l3.avg_blocked_cycles::no_targets          nan                       # average number of cycles each access was blocked
system.l3.writebacks::writebacks                 7660                       # number of writebacks
system.l3.writebacks::total                      7660                       # number of writebacks
system.l3.CleanEvict_mshr_misses::writebacks           95                       # number of CleanEvict MSHR misses
system.l3.CleanEvict_mshr_misses::total            95                       # number of CleanEvict MSHR misses
system.l3.ReadExReq_mshr_misses::cpu.data         6401                       # number of ReadExReq MSHR misses
system.l3.ReadExReq_mshr_misses::total           6401                       # number of ReadExReq MSHR misses
system.l3.ReadSharedReq_mshr_misses::cpu.inst          418                       # number of ReadSharedReq MSHR misses
system.l3.ReadSharedReq_mshr_misses::cpu.data         6365                       # number of ReadSharedReq MSHR misses
system.l3.ReadSharedReq_mshr_misses::total         6783                       # number of ReadSharedReq MSHR misses
system.l3.demand_mshr_misses::cpu.inst            418                       # number of demand (read+write) MSHR misses
system.l3.demand_mshr_misses::cpu.data          12766                       # number of demand (read+write) MSHR misses
system.l3.demand_mshr_misses::total             13184                       # number of demand (read+write) MSHR misses
system.l3.overall_mshr_misses::cpu.inst           418                       # number of overall MSHR misses
system.l3.overall_mshr_misses::cpu.data         12766                       # number of overall MSHR misses
system.l3.overall_mshr_misses::total            13184                       # number of overall MSHR misses
system.l3.ReadExReq_mshr_miss_latency::cpu.data    516409500                       # number of ReadExReq MSHR miss cycles
system.l3.ReadExReq_mshr_miss_latency::total    516409500                       # number of ReadExReq MSHR miss cycles
system.l3.ReadSharedReq_mshr_miss_latency::cpu.inst     69446000                       # number of ReadSharedReq MSHR miss cycles
system.l3.ReadSharedReq_mshr_miss_latency::cpu.data   1972232000                       # number of ReadSharedReq MSHR miss cycles
system.l3.ReadSharedReq_mshr_miss_latency::total   2041678000                       # number of ReadSharedReq MSHR miss cycles
system.l3.demand_mshr_miss_latency::cpu.inst     69446000                       # number of demand (read+write) MSHR miss cycles
system.l3.demand_mshr_miss_latency::cpu.data   2488641500                       # number of demand (read+write) MSHR miss cycles
system.l3.demand_mshr_miss_latency::total   2558087500                       # number of demand (read+write) MSHR miss cycles
system.l3.overall_mshr_miss_latency::cpu.inst     69446000                       # number of overall MSHR miss cycles
system.l3.overall_mshr_miss_latency::cpu.data   2488641500                       # number of overall MSHR miss cycles
system.l3.overall_mshr_miss_latency::total   2558087500                       # number of overall MSHR miss cycles
system.l3.CleanEvict_mshr_miss_rate::writebacks          inf                       # mshr miss rate for CleanEvict accesses
system.l3.CleanEvict_mshr_miss_rate::total          inf                       # mshr miss rate for CleanEvict accesses
system.l3.ReadExReq_mshr_miss_rate::cpu.data     0.993790                       # mshr miss rate for ReadExReq accesses
system.l3.ReadExReq_mshr_miss_rate::total     0.993790                       # mshr miss rate for ReadExReq accesses
system.l3.ReadSharedReq_mshr_miss_rate::cpu.inst            1                       # mshr miss rate for ReadSharedReq accesses
system.l3.ReadSharedReq_mshr_miss_rate::cpu.data     0.366099                       # mshr miss rate for ReadSharedReq accesses
system.l3.ReadSharedReq_mshr_miss_rate::total     0.380982                       # mshr miss rate for ReadSharedReq accesses
system.l3.demand_mshr_miss_rate::cpu.inst            1                       # mshr miss rate for demand accesses
system.l3.demand_mshr_miss_rate::cpu.data     0.535779                       # mshr miss rate for demand accesses
system.l3.demand_mshr_miss_rate::total       0.543782                       # mshr miss rate for demand accesses
system.l3.overall_mshr_miss_rate::cpu.inst            1                       # mshr miss rate for overall accesses
system.l3.overall_mshr_miss_rate::cpu.data     0.535779                       # mshr miss rate for overall accesses
system.l3.overall_mshr_miss_rate::total      0.543782                       # mshr miss rate for overall accesses
system.l3.ReadExReq_avg_mshr_miss_latency::cpu.data 80676.378691                       # average ReadExReq mshr miss latency
system.l3.ReadExReq_avg_mshr_miss_latency::total 80676.378691                       # average ReadExReq mshr miss latency
system.l3.ReadSharedReq_avg_mshr_miss_latency::cpu.inst 166138.755981                       # average ReadSharedReq mshr miss latency
system.l3.ReadSharedReq_avg_mshr_miss_latency::cpu.data 309855.773763                       # average ReadSharedReq mshr miss latency
system.l3.ReadSharedReq_avg_mshr_miss_latency::total 300999.262863                       # average ReadSharedReq mshr miss latency
system.l3.demand_avg_mshr_miss_latency::cpu.inst 166138.755981                       # average overall mshr miss latency
system.l3.demand_avg_mshr_miss_latency::cpu.data 194942.934357                       # average overall mshr miss latency
system.l3.demand_avg_mshr_miss_latency::total 194029.695085                       # average overall mshr miss latency
system.l3.overall_avg_mshr_miss_latency::cpu.inst 166138.755981                       # average overall mshr miss latency
system.l3.overall_avg_mshr_miss_latency::cpu.data 194942.934357                       # average overall mshr miss latency
system.l3.overall_avg_mshr_miss_latency::total 194029.695085                       # average overall mshr miss latency
system.l3.replacements                          17577                       # number of replacements
system.membus.snoop_filter.tot_requests         23500                       # Total number of requests made to the snoop filter.
system.membus.snoop_filter.hit_single_requests        10316                       # Number of requests hitting in the snoop filter with a single holder of the requested data.
system.membus.snoop_filter.hit_multi_requests            0                       # Number of requests hitting in the snoop filter with multiple (>1) holders of the requested data.
system.membus.snoop_filter.tot_snoops               0                       # Total number of snoops made to the snoop filter.
system.membus.snoop_filter.hit_single_snoops            0                       # Number of snoops hitting in the snoop filter with a single holder of the requested data.
system.membus.snoop_filter.hit_multi_snoops            0                       # Number of snoops hitting in the snoop filter with multiple (>1) holders of the requested data.
system.membus.pwrStateResidencyTicks::UNDEFINED  90353881000                       # Cumulative time (in ticks) in various power states
system.membus.trans_dist::ReadResp               6783                       # Transaction distribution
system.membus.trans_dist::WritebackDirty         7660                       # Transaction distribution
system.membus.trans_dist::CleanEvict              183                       # Transaction distribution
system.membus.trans_dist::ReadExReq              6401                       # Transaction distribution
system.membus.trans_dist::ReadExResp             6401                       # Transaction distribution
system.membus.trans_dist::ReadSharedReq          6783                       # Transaction distribution
system.membus.pkt_count_system.l3.mem_side::system.mem_ctrls.port        34211                       # Packet count per connected master and slave (bytes)
system.membus.pkt_count_system.l3.mem_side::total        34211                       # Packet count per connected master and slave (bytes)
system.membus.pkt_count::total                  34211                       # Packet count per connected master and slave (bytes)
system.membus.pkt_size_system.l3.mem_side::system.mem_ctrls.port      1334016                       # Cumulative packet size per connected master and slave (bytes)
system.membus.pkt_size_system.l3.mem_side::total      1334016                       # Cumulative packet size per connected master and slave (bytes)
system.membus.pkt_size::total                 1334016                       # Cumulative packet size per connected master and slave (bytes)
system.membus.snoops                                0                       # Total snoops (count)
system.membus.snoopTraffic                          0                       # Total snoop traffic (bytes)
system.membus.snoop_fanout::samples             13184                       # Request fanout histogram
system.membus.snoop_fanout::mean                    0                       # Request fanout histogram
system.membus.snoop_fanout::stdev                   0                       # Request fanout histogram
system.membus.snoop_fanout::underflows              0      0.00%      0.00% # Request fanout histogram
system.membus.snoop_fanout::0                   13184    100.00%    100.00% # Request fanout histogram
system.membus.snoop_fanout::1                       0      0.00%    100.00% # Request fanout histogram
system.membus.snoop_fanout::overflows               0      0.00%    100.00% # Request fanout histogram
system.membus.snoop_fanout::min_value               0                       # Request fanout histogram
system.membus.snoop_fanout::max_value               0                       # Request fanout histogram
system.membus.snoop_fanout::total               13184                       # Request fanout histogram
system.membus.reqLayer2.occupancy            54183500                       # Layer occupancy (ticks)
system.membus.reqLayer2.utilization               0.1                       # Layer utilization (%)
system.membus.respLayer1.occupancy           65926000                       # Layer occupancy (ticks)
system.membus.respLayer1.utilization              0.1                       # Layer utilization (%)
system.tol2bus.snoop_filter.tot_requests       100935                       # Total number of requests made to the snoop filter.
system.tol2bus.snoop_filter.hit_single_requests        55071                       # Number of requests hitting in the snoop filter with a single holder of the requested data.
system.tol2bus.snoop_filter.hit_multi_requests            0                       # Number of requests hitting in the snoop filter with multiple (>1) holders of the requested data.
system.tol2bus.snoop_filter.tot_snoops           4801                       # Total number of snoops made to the snoop filter.
system.tol2bus.snoop_filter.hit_single_snoops         4801                       # Number of snoops hitting in the snoop filter with a single holder of the requested data.
system.tol2bus.snoop_filter.hit_multi_snoops            0                       # Number of snoops hitting in the snoop filter with multiple (>1) holders of the requested data.
system.tol2bus.pwrStateResidencyTicks::UNDEFINED  90353881000                       # Cumulative time (in ticks) in various power states
system.tol2bus.trans_dist::ReadResp             39164                       # Transaction distribution
system.tol2bus.trans_dist::WritebackDirty        65185                       # Transaction distribution
system.tol2bus.trans_dist::WritebackClean           73                       # Transaction distribution
system.tol2bus.trans_dist::CleanEvict           11823                       # Transaction distribution
system.tol2bus.trans_dist::UpgradeReq           10066                       # Transaction distribution
system.tol2bus.trans_dist::UpgradeResp          10066                       # Transaction distribution
system.tol2bus.trans_dist::ReadExReq             6700                       # Transaction distribution
system.tol2bus.trans_dist::ReadExResp            6700                       # Transaction distribution
system.tol2bus.trans_dist::ReadCleanReq           420                       # Transaction distribution
system.tol2bus.trans_dist::ReadSharedReq        38744                       # Transaction distribution
system.tol2bus.pkt_count_system.cpu.icache.mem_side::system.l2.cpu_side          913                       # Packet count per connected master and slave (bytes)
system.tol2bus.pkt_count_system.cpu.dcache.mem_side::system.l2.cpu_side       155952                       # Packet count per connected master and slave (bytes)
system.tol2bus.pkt_count::total                156865                       # Packet count per connected master and slave (bytes)
system.tol2bus.pkt_size_system.cpu.icache.mem_side::system.l2.cpu_side        31552                       # Cumulative packet size per connected master and slave (bytes)
system.tol2bus.pkt_size_system.cpu.dcache.mem_side::system.l2.cpu_side      5688064                       # Cumulative packet size per connected master and slave (bytes)
system.tol2bus.pkt_size::total                5719616                       # Cumulative packet size per connected master and slave (bytes)
system.tol2bus.snoops                           32076                       # Total snoops (count)
system.tol2bus.snoopTraffic                   1392192                       # Total snoop traffic (bytes)
system.tol2bus.snoop_fanout::samples            88006                       # Request fanout histogram
system.tol2bus.snoop_fanout::mean            0.054553                       # Request fanout histogram
system.tol2bus.snoop_fanout::stdev           0.227107                       # Request fanout histogram
system.tol2bus.snoop_fanout::underflows             0      0.00%      0.00% # Request fanout histogram
system.tol2bus.snoop_fanout::0                  83205     94.54%     94.54% # Request fanout histogram
system.tol2bus.snoop_fanout::1                   4801      5.46%    100.00% # Request fanout histogram
system.tol2bus.snoop_fanout::2                      0      0.00%    100.00% # Request fanout histogram
system.tol2bus.snoop_fanout::3                      0      0.00%    100.00% # Request fanout histogram
system.tol2bus.snoop_fanout::4                      0      0.00%    100.00% # Request fanout histogram
system.tol2bus.snoop_fanout::overflows              0      0.00%    100.00% # Request fanout histogram
system.tol2bus.snoop_fanout::min_value              0                       # Request fanout histogram
system.tol2bus.snoop_fanout::max_value              1                       # Request fanout histogram
system.tol2bus.snoop_fanout::total              88006                       # Request fanout histogram
system.tol2bus.reqLayer0.occupancy           93972500                       # Layer occupancy (ticks)
system.tol2bus.reqLayer0.utilization              0.1                       # Layer utilization (%)
system.tol2bus.respLayer0.occupancy            630000                       # Layer occupancy (ticks)
system.tol2bus.respLayer0.utilization             0.0                       # Layer utilization (%)
system.tol2bus.respLayer1.occupancy          73199000                       # Layer occupancy (ticks)
system.tol2bus.respLayer1.utilization             0.1                       # Layer utilization (%)
system.tol3bus.snoop_filter.tot_requests        46200                       # Total number of requests made to the snoop filter.
system.tol3bus.snoop_filter.hit_single_requests        21950                       # Number of requests hitting in the snoop filter with a single holder of the requested data.
system.tol3bus.snoop_filter.hit_multi_requests            0                       # Number of requests hitting in the snoop filter with multiple (>1) holders of the requested data.
system.tol3bus.snoop_filter.tot_snoops           9829                       # Total number of snoops made to the snoop filter.
system.tol3bus.snoop_filter.hit_single_snoops         9829                       # Number of snoops hitting in the snoop filter with a single holder of the requested data.
system.tol3bus.snoop_filter.hit_multi_snoops            0                       # Number of snoops hitting in the snoop filter with multiple (>1) holders of the requested data.
system.tol3bus.pwrStateResidencyTicks::UNDEFINED  90353881000                       # Cumulative time (in ticks) in various power states
system.tol3bus.trans_dist::ReadResp             17804                       # Transaction distribution
system.tol3bus.trans_dist::WritebackDirty        29413                       # Transaction distribution
system.tol3bus.trans_dist::CleanEvict           10114                       # Transaction distribution
system.tol3bus.trans_dist::ReadExReq             6441                       # Transaction distribution
system.tol3bus.trans_dist::ReadExResp            6441                       # Transaction distribution
system.tol3bus.trans_dist::ReadSharedReq        17804                       # Transaction distribution
system.tol3bus.pkt_count_system.l2.mem_side::system.l3.cpu_side        70440                       # Packet count per connected master and slave (bytes)
system.tol3bus.pkt_size_system.l2.mem_side::system.l3.cpu_side      2943872                       # Cumulative packet size per connected master and slave (bytes)
system.tol3bus.snoops                           17577                       # Total snoops (count)
system.tol3bus.snoopTraffic                    490240                       # Total snoop traffic (bytes)
system.tol3bus.snoop_fanout::samples            41827                       # Request fanout histogram
system.tol3bus.snoop_fanout::mean            0.234992                       # Request fanout histogram
system.tol3bus.snoop_fanout::stdev           0.423999                       # Request fanout histogram
system.tol3bus.snoop_fanout::underflows             0      0.00%      0.00% # Request fanout histogram
system.tol3bus.snoop_fanout::0                  31998     76.50%     76.50% # Request fanout histogram
system.tol3bus.snoop_fanout::1                   9829     23.50%    100.00% # Request fanout histogram
system.tol3bus.snoop_fanout::overflows              0      0.00%    100.00% # Request fanout histogram
system.tol3bus.snoop_fanout::min_value              0                       # Request fanout histogram
system.tol3bus.snoop_fanout::max_value              1                       # Request fanout histogram
system.tol3bus.snoop_fanout::total              41827                       # Request fanout histogram
system.tol3bus.reqLayer0.occupancy           44855495                       # Layer occupancy (ticks)
system.tol3bus.reqLayer0.utilization              0.0                       # Layer utilization (%)
system.tol3bus.respLayer0.occupancy          36367505                       # Layer occupancy (ticks)
system.tol3bus.respLayer0.utilization             0.0                       # Layer utilization (%)

---------- End Simulation Statistics   ----------
