
---------- Begin Simulation Statistics ----------
sim_seconds                                  0.091251                       # Number of seconds simulated
sim_ticks                                 91251473000                       # Number of ticks simulated
final_tick                                91251473000                       # Number of ticks from beginning of simulation (restored from checkpoints and never reset)
sim_freq                                 1000000000000                       # Frequency of simulated ticks
host_inst_rate                                1000332                       # Simulator instruction rate (inst/s)
host_op_rate                                  1647081                       # Simulator op (including micro ops) rate (op/s)
host_tick_rate                             2047042557                       # Simulator tick rate (ticks/s)
host_mem_usage                                 663224                       # Number of bytes of host memory used
host_seconds                                    44.58                       # Real time elapsed on the host
sim_insts                                    44592025                       # Number of instructions simulated
sim_ops                                      73422276                       # Number of ops (including micro ops) simulated
system.voltage_domain.voltage                       1                       # Voltage in Volts
system.clk_domain.clock                          1000                       # Clock period in ticks
system.mem_ctrls.pwrStateResidencyTicks::UNDEFINED  91251473000                       # Cumulative time (in ticks) in various power states
system.mem_ctrls.bytes_read::cpu.inst           26752                       # Number of bytes read from this memory
system.mem_ctrls.bytes_read::cpu.data          846720                       # Number of bytes read from this memory
system.mem_ctrls.bytes_read::total             873472                       # Number of bytes read from this memory
system.mem_ctrls.bytes_inst_read::cpu.inst        26752                       # Number of instructions bytes read from this memory
system.mem_ctrls.bytes_inst_read::total         26752                       # Number of instructions bytes read from this memory
system.mem_ctrls.bytes_written::writebacks       576768                       # Number of bytes written to this memory
system.mem_ctrls.bytes_written::total          576768                       # Number of bytes written to this memory
system.mem_ctrls.num_reads::cpu.inst              418                       # Number of read requests responded to by this memory
system.mem_ctrls.num_reads::cpu.data            13230                       # Number of read requests responded to by this memory
system.mem_ctrls.num_reads::total               13648                       # Number of read requests responded to by this memory
system.mem_ctrls.num_writes::writebacks          9012                       # Number of write requests responded to by this memory
system.mem_ctrls.num_writes::total               9012                       # Number of write requests responded to by this memory
system.mem_ctrls.bw_read::cpu.inst             293168                       # Total read bandwidth from this memory (bytes/s)
system.mem_ctrls.bw_read::cpu.data            9278974                       # Total read bandwidth from this memory (bytes/s)
system.mem_ctrls.bw_read::total               9572141                       # Total read bandwidth from this memory (bytes/s)
system.mem_ctrls.bw_inst_read::cpu.inst        293168                       # Instruction read bandwidth from this memory (bytes/s)
system.mem_ctrls.bw_inst_read::total           293168                       # Instruction read bandwidth from this memory (bytes/s)
system.mem_ctrls.bw_write::writebacks         6320643                       # Write bandwidth from this memory (bytes/s)
system.mem_ctrls.bw_write::total              6320643                       # Write bandwidth from this memory (bytes/s)
system.mem_ctrls.bw_total::writebacks         6320643                       # Total bandwidth to/from this memory (bytes/s)
system.mem_ctrls.bw_total::cpu.inst            293168                       # Total bandwidth to/from this memory (bytes/s)
system.mem_ctrls.bw_total::cpu.data           9278974                       # Total bandwidth to/from this memory (bytes/s)
system.mem_ctrls.bw_total::total             15892785                       # Total bandwidth to/from this memory (bytes/s)
system.pwrStateResidencyTicks::UNDEFINED  91251473000                       # Cumulative time (in ticks) in various power states
system.cpu_voltage_domain.voltage                   1                       # Voltage in Volts
system.cpu_clk_domain.clock                       500                       # Clock period in ticks
system.cpu.dtb.walker.pwrStateResidencyTicks::UNDEFINED  91251473000                       # Cumulative time (in ticks) in various power states
system.cpu.dtb.rdAccesses                    20878308                       # TLB accesses on read requests
system.cpu.dtb.wrAccesses                     5816847                       # TLB accesses on write requests
system.cpu.dtb.rdMisses                           169                       # TLB misses on read requests
system.cpu.dtb.wrMisses                           107                       # TLB misses on write requests
system.cpu.apic_clk_domain.clock                 8000                       # Clock period in ticks
system.cpu.interrupts.pwrStateResidencyTicks::UNDEFINED  91251473000                       # Cumulative time (in ticks) in various power states
system.cpu.itb.walker.pwrStateResidencyTicks::UNDEFINED  91251473000                       # Cumulative time (in ticks) in various power states
system.cpu.itb.rdAccesses                           0                       # TLB accesses on read requests
system.cpu.itb.wrAccesses                    59919831                       # TLB accesses on write requests
system.cpu.itb.rdMisses                             0                       # TLB misses on read requests
system.cpu.itb.wrMisses                            42                       # TLB misses on write requests
system.cpu.workload.numSyscalls                    11                       # Number of system calls
system.cpu.pwrStateResidencyTicks::ON     91251473000                       # Cumulative time (in ticks) in various power states
system.cpu.numCycles                        182502946                       # number of cpu cycles simulated
system.cpu.numWorkItemsStarted                      0                       # number of work items this cpu started
system.cpu.numWorkItemsCompleted                    0                       # number of work items this cpu completed
system.cpu.committedInsts                    44592025                       # Number of instructions committed
system.cpu.committedOps                      73422276                       # Number of ops (including micro ops) committed
system.cpu.num_int_alu_accesses              72900333                       # Number of integer alu accesses
system.cpu.num_fp_alu_accesses                   1991                       # Number of float alu accesses
system.cpu.num_vec_alu_accesses                     0                       # Number of vector alu accesses
system.cpu.num_func_calls                      944988                       # number of times a function call or return occured
system.cpu.num_conditional_control_insts      4232892                       # number of instructions that are conditional controls
system.cpu.num_int_insts                     72900333                       # number of integer instructions
system.cpu.num_fp_insts                          1991                       # number of float instructions
system.cpu.num_vec_insts                            0                       # number of vector instructions
system.cpu.num_int_register_reads           163700123                       # number of times the integer registers were read
system.cpu.num_int_register_writes           63689963                       # number of times the integer registers were written
system.cpu.num_fp_register_reads                 3827                       # number of times the floating registers were read
system.cpu.num_fp_register_writes                1508                       # number of times the floating registers were written
system.cpu.num_vec_register_reads                   0                       # number of times the vector registers were read
system.cpu.num_vec_register_writes                  0                       # number of times the vector registers were written
system.cpu.num_cc_register_reads             27639252                       # number of times the CC registers were read
system.cpu.num_cc_register_writes            24934373                       # number of times the CC registers were written
system.cpu.num_mem_refs                      26695151                       # number of memory refs
system.cpu.num_load_insts                    20878305                       # Number of load instructions
system.cpu.num_store_insts                    5816846                       # Number of store instructions
system.cpu.num_idle_cycles                          0                       # Number of idle cycles
system.cpu.num_busy_cycles                  182502946                       # Number of busy cycles
system.cpu.not_idle_fraction                        1                       # Percentage of non-idle cycles
system.cpu.idle_fraction                            0                       # Percentage of idle cycles
system.cpu.Branches                           5575281                       # Number of branches fetched
system.cpu.op_class::No_OpClass                175849      0.24%      0.24% # Class of executed instruction
system.cpu.op_class::IntAlu                  45547287     62.03%     62.27% # Class of executed instruction
system.cpu.op_class::IntMult                        4      0.00%     62.27% # Class of executed instruction
system.cpu.op_class::IntDiv                   1003001      1.37%     63.64% # Class of executed instruction
system.cpu.op_class::FloatAdd                      10      0.00%     63.64% # Class of executed instruction
system.cpu.op_class::FloatCmp                       0      0.00%     63.64% # Class of executed instruction
system.cpu.op_class::FloatCvt                       0      0.00%     63.64% # Class of executed instruction
system.cpu.op_class::FloatMult                      0      0.00%     63.64% # Class of executed instruction
system.cpu.op_class::FloatMultAcc                   0      0.00%     63.64% # Class of executed instruction
system.cpu.op_class::FloatDiv                       0      0.00%     63.64% # Class of executed instruction
system.cpu.op_class::FloatMisc                      0      0.00%     63.64% # Class of executed instruction
system.cpu.op_class::FloatSqrt                      0      0.00%     63.64% # Class of executed instruction
system.cpu.op_class::SimdAdd                      374      0.00%     63.64% # Class of executed instruction
system.cpu.op_class::SimdAddAcc                     0      0.00%     63.64% # Class of executed instruction
system.cpu.op_class::SimdAlu                       76      0.00%     63.64% # Class of executed instruction
system.cpu.op_class::SimdCmp                        0      0.00%     63.64% # Class of executed instruction
system.cpu.op_class::SimdCvt                      116      0.00%     63.64% # Class of executed instruction
system.cpu.op_class::SimdMisc                     222      0.00%     63.64% # Class of executed instruction
system.cpu.op_class::SimdMult                       0      0.00%     63.64% # Class of executed instruction
system.cpu.op_class::SimdMultAcc                    0      0.00%     63.64% # Class of executed instruction
system.cpu.op_class::SimdShift                    186      0.00%     63.64% # Class of executed instruction
system.cpu.op_class::SimdShiftAcc                   0      0.00%     63.64% # Class of executed instruction
system.cpu.op_class::SimdSqrt                       0      0.00%     63.64% # Class of executed instruction
system.cpu.op_class::SimdFloatAdd                   0      0.00%     63.64% # Class of executed instruction
system.cpu.op_class::SimdFloatAlu                   0      0.00%     63.64% # Class of executed instruction
system.cpu.op_class::SimdFloatCmp                   0      0.00%     63.64% # Class of executed instruction
system.cpu.op_class::SimdFloatCvt                   0      0.00%     63.64% # Class of executed instruction
system.cpu.op_class::SimdFloatDiv                   0      0.00%     63.64% # Class of executed instruction
system.cpu.op_class::SimdFloatMisc                  0      0.00%     63.64% # Class of executed instruction
system.cpu.op_class::SimdFloatMult                  0      0.00%     63.64% # Class of executed instruction
system.cpu.op_class::SimdFloatMultAcc               0      0.00%     63.64% # Class of executed instruction
system.cpu.op_class::SimdFloatSqrt                  0      0.00%     63.64% # Class of executed instruction
system.cpu.op_class::MemRead                 20878237     28.44%     92.08% # Class of executed instruction
system.cpu.op_class::MemWrite                 5816419      7.92%    100.00% # Class of executed instruction
system.cpu.op_class::FloatMemRead                  68      0.00%    100.00% # Class of executed instruction
system.cpu.op_class::FloatMemWrite                427      0.00%    100.00% # Class of executed instruction
system.cpu.op_class::IprAccess                      0      0.00%    100.00% # Class of executed instruction
system.cpu.op_class::InstPrefetch                   0      0.00%    100.00% # Class of executed instruction
system.cpu.op_class::total                   73422276                       # Class of executed instruction
system.cpu.dcache.tags.pwrStateResidencyTicks::UNDEFINED  91251473000                       # Cumulative time (in ticks) in various power states
system.cpu.dcache.tags.tagsinuse           510.023246                       # Cycle average of tags in use
system.cpu.dcache.tags.total_refs            26695155                       # Total number of references to valid blocks.
system.cpu.dcache.tags.sampled_refs             45444                       # Sample count of references to valid blocks.
system.cpu.dcache.tags.avg_refs            587.429694                       # Average number of references to valid blocks.
system.cpu.dcache.tags.warmup_cycle            759000                       # Cycle when the warmup percentage was hit.
system.cpu.dcache.tags.occ_blocks::cpu.data   510.023246                       # Average occupied blocks per requestor
system.cpu.dcache.tags.occ_percent::cpu.data     0.996139                       # Average percentage of cache occupancy
system.cpu.dcache.tags.occ_percent::total     0.996139                       # Average percentage of cache occupancy
system.cpu.dcache.tags.occ_task_id_blocks::1024          512                       # Occupied blocks per task id
system.cpu.dcache.tags.age_task_id_blocks_1024::1           45                       # Occupied blocks per task id
system.cpu.dcache.tags.age_task_id_blocks_1024::2           33                       # Occupied blocks per task id
system.cpu.dcache.tags.age_task_id_blocks_1024::3          432                       # Occupied blocks per task id
system.cpu.dcache.tags.age_task_id_blocks_1024::4            2                       # Occupied blocks per task id
system.cpu.dcache.tags.occ_task_id_percent::1024            1                       # Percentage of cache occupancy per task id
system.cpu.dcache.tags.tag_accesses          53435754                       # Number of tag accesses
system.cpu.dcache.tags.data_accesses         53435754                       # Number of data accesses
system.cpu.dcache.pwrStateResidencyTicks::UNDEFINED  91251473000                       # Cumulative time (in ticks) in various power states
system.cpu.dcache.ReadReq_hits::cpu.data     20839564                       # number of ReadReq hits
system.cpu.dcache.ReadReq_hits::total        20839564                       # number of ReadReq hits
system.cpu.dcache.WriteReq_hits::cpu.data      5800609                       # number of WriteReq hits
system.cpu.dcache.WriteReq_hits::total        5800609                       # number of WriteReq hits
system.cpu.dcache.demand_hits::cpu.data      26640173                       # number of demand (read+write) hits
system.cpu.dcache.demand_hits::total         26640173                       # number of demand (read+write) hits
system.cpu.dcache.overall_hits::cpu.data     26640173                       # number of overall hits
system.cpu.dcache.overall_hits::total        26640173                       # number of overall hits
system.cpu.dcache.ReadReq_misses::cpu.data        38744                       # number of ReadReq misses
system.cpu.dcache.ReadReq_misses::total         38744                       # number of ReadReq misses
system.cpu.dcache.WriteReq_misses::cpu.data        16238                       # number of WriteReq misses
system.cpu.dcache.WriteReq_misses::total        16238                       # number of WriteReq misses
system.cpu.dcache.demand_misses::cpu.data        54982                       # number of demand (read+write) misses
system.cpu.dcache.demand_misses::total          54982                       # number of demand (read+write) misses
system.cpu.dcache.overall_misses::cpu.data        54982                       # number of overall misses
system.cpu.dcache.overall_misses::total         54982                       # number of overall misses
system.cpu.dcache.ReadReq_miss_latency::cpu.data   3244687500                       # number of ReadReq miss cycles
system.cpu.dcache.ReadReq_miss_latency::total   3244687500                       # number of ReadReq miss cycles
system.cpu.dcache.WriteReq_miss_latency::cpu.data   1355048500                       # number of WriteReq miss cycles
system.cpu.dcache.WriteReq_miss_latency::total   1355048500                       # number of WriteReq miss cycles
system.cpu.dcache.demand_miss_latency::cpu.data   4599736000                       # number of demand (read+write) miss cycles
system.cpu.dcache.demand_miss_latency::total   4599736000                       # number of demand (read+write) miss cycles
system.cpu.dcache.overall_miss_latency::cpu.data   4599736000                       # number of overall miss cycles
system.cpu.dcache.overall_miss_latency::total   4599736000                       # number of overall miss cycles
system.cpu.dcache.ReadReq_accesses::cpu.data     20878308                       # number of ReadReq accesses(hits+misses)
system.cpu.dcache.ReadReq_accesses::total     20878308                       # number of ReadReq accesses(hits+misses)
system.cpu.dcache.WriteReq_accesses::cpu.data      5816847                       # number of WriteReq accesses(hits+misses)
system.cpu.dcache.WriteReq_accesses::total      5816847                       # number of WriteReq accesses(hits+misses)
system.cpu.dcache.demand_accesses::cpu.data     26695155                       # number of demand (read+write) accesses
system.cpu.dcache.demand_accesses::total     26695155                       # number of demand (read+write) accesses
system.cpu.dcache.overall_accesses::cpu.data     26695155                       # number of overall (read+write) accesses
system.cpu.dcache.overall_accesses::total     26695155                       # number of overall (read+write) accesses
system.cpu.dcache.ReadReq_miss_rate::cpu.data     0.001856                       # miss rate for ReadReq accesses
system.cpu.dcache.ReadReq_miss_rate::total     0.001856                       # miss rate for ReadReq accesses
system.cpu.dcache.WriteReq_miss_rate::cpu.data     0.002792                       # miss rate for WriteReq accesses
system.cpu.dcache.WriteReq_miss_rate::total     0.002792                       # miss rate for WriteReq accesses
system.cpu.dcache.demand_miss_rate::cpu.data     0.002060                       # miss rate for demand accesses
system.cpu.dcache.demand_miss_rate::total     0.002060                       # miss rate for demand accesses
system.cpu.dcache.overall_miss_rate::cpu.data     0.002060                       # miss rate for overall accesses
system.cpu.dcache.overall_miss_rate::total     0.002060                       # miss rate for overall accesses
system.cpu.dcache.ReadReq_avg_miss_latency::cpu.data 83746.838220                       # average ReadReq miss latency
system.cpu.dcache.ReadReq_avg_miss_latency::total 83746.838220                       # average ReadReq miss latency
system.cpu.dcache.WriteReq_avg_miss_latency::cpu.data 83449.224042                       # average WriteReq miss latency
system.cpu.dcache.WriteReq_avg_miss_latency::total 83449.224042                       # average WriteReq miss latency
system.cpu.dcache.demand_avg_miss_latency::cpu.data 83658.942927                       # average overall miss latency
system.cpu.dcache.demand_avg_miss_latency::total 83658.942927                       # average overall miss latency
system.cpu.dcache.overall_avg_miss_latency::cpu.data 83658.942927                       # average overall miss latency
system.cpu.dcache.overall_avg_miss_latency::total 83658.942927                       # average overall miss latency
system.cpu.dcache.blocked_cycles::no_mshrs            0                       # number of cycles access was blocked
system.cpu.dcache.blocked_cycles::no_targets            0                       # number of cycles access was blocked
system.cpu.dcache.blocked::no_mshrs                 0                       # number of cycles access was blocked
system.cpu.dcache.blocked::no_targets               0                       # number of cycles access was blocked
system.cpu.dcache.avg_blocked_cycles::no_mshrs          nan                       # average number of cycles each access was blocked
system.cpu.dcache.avg_blocked_cycles::no_targets          nan                       # average number of cycles each access was blocked
system.cpu.dcache.writebacks::writebacks        43433                       # number of writebacks
system.cpu.dcache.writebacks::total             43433                       # number of writebacks
system.cpu.dcache.ReadReq_mshr_misses::cpu.data        38744                       # number of ReadReq MSHR misses
system.cpu.dcache.ReadReq_mshr_misses::total        38744                       # number of ReadReq MSHR misses
system.cpu.dcache.WriteReq_mshr_misses::cpu.data        16238                       # number of WriteReq MSHR misses
system.cpu.dcache.WriteReq_mshr_misses::total        16238                       # number of WriteReq MSHR misses
system.cpu.dcache.demand_mshr_misses::cpu.data        54982                       # number of demand (read+write) MSHR misses
system.cpu.dcache.demand_mshr_misses::total        54982                       # number of demand (read+write) MSHR misses
system.cpu.dcache.overall_mshr_misses::cpu.data        54982                       # number of overall MSHR misses
system.cpu.dcache.overall_mshr_misses::total        54982                       # number of overall MSHR misses
system.cpu.dcache.ReadReq_mshr_miss_latency::cpu.data   3205943500                       # number of ReadReq MSHR miss cycles
system.cpu.dcache.ReadReq_mshr_miss_latency::total   3205943500                       # number of ReadReq MSHR miss cycles
system.cpu.dcache.WriteReq_mshr_miss_latency::cpu.data   1338810500                       # number of WriteReq MSHR miss cycles
system.cpu.dcache.WriteReq_mshr_miss_latency::total   1338810500                       # number of WriteReq MSHR miss cycles
system.cpu.dcache.demand_mshr_miss_latency::cpu.data   4544754000                       # number of demand (read+write) MSHR miss cycles
system.cpu.dcache.demand_mshr_miss_latency::total   4544754000                       # number of demand (read+write) MSHR miss cycles
system.cpu.dcache.overall_mshr_miss_latency::cpu.data   4544754000                       # number of overall MSHR miss cycles
system.cpu.dcache.overall_mshr_miss_latency::total   4544754000                       # number of overall MSHR miss cycles
system.cpu.dcache.ReadReq_mshr_miss_rate::cpu.data     0.001856                       # mshr miss rate for ReadReq accesses
system.cpu.dcache.ReadReq_mshr_miss_rate::total     0.001856                       # mshr miss rate for ReadReq accesses
system.cpu.dcache.WriteReq_mshr_miss_rate::cpu.data     0.002792                       # mshr miss rate for WriteReq accesses
system.cpu.dcache.WriteReq_mshr_miss_rate::total     0.002792                       # mshr miss rate for WriteReq accesses
system.cpu.dcache.demand_mshr_miss_rate::cpu.data     0.002060                       # mshr miss rate for demand accesses
system.cpu.dcache.demand_mshr_miss_rate::total     0.002060                       # mshr miss rate for demand accesses
system.cpu.dcache.overall_mshr_miss_rate::cpu.data     0.002060                       # mshr miss rate for overall accesses
system.cpu.dcache.overall_mshr_miss_rate::total     0.002060                       # mshr miss rate for overall accesses
system.cpu.dcache.ReadReq_avg_mshr_miss_latency::cpu.data 82746.838220                       # average ReadReq mshr miss latency
system.cpu.dcache.ReadReq_avg_mshr_miss_latency::total 82746.838220                       # average ReadReq mshr miss latency
system.cpu.dcache.WriteReq_avg_mshr_miss_latency::cpu.data 82449.224042                       # average WriteReq mshr miss latency
system.cpu.dcache.WriteReq_avg_mshr_miss_latency::total 82449.224042                       # average WriteReq mshr miss latency
system.cpu.dcache.demand_avg_mshr_miss_latency::cpu.data 82658.942927                       # average overall mshr miss latency
system.cpu.dcache.demand_avg_mshr_miss_latency::total 82658.942927                       # average overall mshr miss latency
system.cpu.dcache.overall_avg_mshr_miss_latency::cpu.data 82658.942927                       # average overall mshr miss latency
system.cpu.dcache.overall_avg_mshr_miss_latency::total 82658.942927                       # average overall mshr miss latency
system.cpu.dcache.replacements                  44932                       # number of replacements
system.cpu.dtb_walker_cache.tags.pwrStateResidencyTicks::UNDEFINED  91251473000                       # Cumulative time (in ticks) in various power states
system.cpu.dtb_walker_cache.tags.tagsinuse            0                       # Cycle average of tags in use
system.cpu.dtb_walker_cache.tags.total_refs            0                       # Total number of references to valid blocks.
system.cpu.dtb_walker_cache.tags.sampled_refs            0                       # Sample count of references to valid blocks.
system.cpu.dtb_walker_cache.tags.avg_refs          nan                       # Average number of references to valid blocks.
system.cpu.dtb_walker_cache.tags.warmup_cycle            0                       # Cycle when the warmup percentage was hit.
system.cpu.dtb_walker_cache.tags.tag_accesses            0                       # Number of tag accesses
system.cpu.dtb_walker_cache.tags.data_accesses            0                       # Number of data accesses
system.cpu.dtb_walker_cache.pwrStateResidencyTicks::UNDEFINED  91251473000                       # Cumulative time (in ticks) in various power states
system.cpu.dtb_walker_cache.blocked_cycles::no_mshrs            0                       # number of cycles access was blocked
system.cpu.dtb_walker_cache.blocked_cycles::no_targets            0                       # number of cycles access was blocked
system.cpu.dtb_walker_cache.blocked::no_mshrs            0                       # number of cycles access was blocked
system.cpu.dtb_walker_cache.blocked::no_targets            0                       # number of cycles access was blocked
system.cpu.dtb_walker_cache.avg_blocked_cycles::no_mshrs          nan                       # average number of cycles each access was blocked
system.cpu.dtb_walker_cache.avg_blocked_cycles::no_targets          nan                       # average number of cycles each access was blocked
system.cpu.dtb_walker_cache.replacements            0                       # number of replacements
system.cpu.icache.tags.pwrStateResidencyTicks::UNDEFINED  91251473000                       # Cumulative time (in ticks) in various power states
system.cpu.icache.tags.tagsinuse           282.276934                       # Cycle average of tags in use
system.cpu.icache.tags.total_refs            59919831                       # Total number of references to valid blocks.
system.cpu.icache.tags.sampled_refs               420                       # Sample count of references to valid blocks.
system.cpu.icache.tags.avg_refs          142666.264286                       # Average number of references to valid blocks.
system.cpu.icache.tags.warmup_cycle            439000                       # Cycle when the warmup percentage was hit.
system.cpu.icache.tags.occ_blocks::cpu.inst   282.276934                       # Average occupied blocks per requestor
system.cpu.icache.tags.occ_percent::cpu.inst     0.551322                       # Average percentage of cache occupancy
system.cpu.icache.tags.occ_percent::total     0.551322                       # Average percentage of cache occupancy
system.cpu.icache.tags.occ_task_id_blocks::1024          347                       # Occupied blocks per task id
system.cpu.icache.tags.age_task_id_blocks_1024::0           15                       # Occupied blocks per task id
system.cpu.icache.tags.age_task_id_blocks_1024::1           85                       # Occupied blocks per task id
system.cpu.icache.tags.age_task_id_blocks_1024::4          247                       # Occupied blocks per task id
system.cpu.icache.tags.occ_task_id_percent::1024     0.677734                       # Percentage of cache occupancy per task id
system.cpu.icache.tags.tag_accesses         119840082                       # Number of tag accesses
system.cpu.icache.tags.data_accesses        119840082                       # Number of data accesses
system.cpu.icache.pwrStateResidencyTicks::UNDEFINED  91251473000                       # Cumulative time (in ticks) in various power states
system.cpu.icache.ReadReq_hits::cpu.inst     59919411                       # number of ReadReq hits
system.cpu.icache.ReadReq_hits::total        59919411                       # number of ReadReq hits
system.cpu.icache.demand_hits::cpu.inst      59919411                       # number of demand (read+write) hits
system.cpu.icache.demand_hits::total         59919411                       # number of demand (read+write) hits
system.cpu.icache.overall_hits::cpu.inst     59919411                       # number of overall hits
system.cpu.icache.overall_hits::total        59919411                       # number of overall hits
system.cpu.icache.ReadReq_misses::cpu.inst          420                       # number of ReadReq misses
system.cpu.icache.ReadReq_misses::total           420                       # number of ReadReq misses
system.cpu.icache.demand_misses::cpu.inst          420                       # number of demand (read+write) misses
system.cpu.icache.demand_misses::total            420                       # number of demand (read+write) misses
system.cpu.icache.overall_misses::cpu.inst          420                       # number of overall misses
system.cpu.icache.overall_misses::total           420                       # number of overall misses
system.cpu.icache.ReadReq_miss_latency::cpu.inst     92157000                       # number of ReadReq miss cycles
system.cpu.icache.ReadReq_miss_latency::total     92157000                       # number of ReadReq miss cycles
system.cpu.icache.demand_miss_latency::cpu.inst     92157000                       # number of demand (read+write) miss cycles
system.cpu.icache.demand_miss_latency::total     92157000                       # number of demand (read+write) miss cycles
system.cpu.icache.overall_miss_latency::cpu.inst     92157000                       # number of overall miss cycles
system.cpu.icache.overall_miss_latency::total     92157000                       # number of overall miss cycles
system.cpu.icache.ReadReq_accesses::cpu.inst     59919831                       # number of ReadReq accesses(hits+misses)
system.cpu.icache.ReadReq_accesses::total     59919831                       # number of ReadReq accesses(hits+misses)
system.cpu.icache.demand_accesses::cpu.inst     59919831                       # number of demand (read+write) accesses
system.cpu.icache.demand_accesses::total     59919831                       # number of demand (read+write) accesses
system.cpu.icache.overall_accesses::cpu.inst     59919831                       # number of overall (read+write) accesses
system.cpu.icache.overall_accesses::total     59919831                       # number of overall (read+write) accesses
system.cpu.icache.ReadReq_miss_rate::cpu.inst     0.000007                       # miss rate for ReadReq accesses
system.cpu.icache.ReadReq_miss_rate::total     0.000007                       # miss rate for ReadReq accesses
system.cpu.icache.demand_miss_rate::cpu.inst     0.000007                       # miss rate for demand accesses
system.cpu.icache.demand_miss_rate::total     0.000007                       # miss rate for demand accesses
system.cpu.icache.overall_miss_rate::cpu.inst     0.000007                       # miss rate for overall accesses
system.cpu.icache.overall_miss_rate::total     0.000007                       # miss rate for overall accesses
system.cpu.icache.ReadReq_avg_miss_latency::cpu.inst 219421.428571                       # average ReadReq miss latency
system.cpu.icache.ReadReq_avg_miss_latency::total 219421.428571                       # average ReadReq miss latency
system.cpu.icache.demand_avg_miss_latency::cpu.inst 219421.428571                       # average overall miss latency
system.cpu.icache.demand_avg_miss_latency::total 219421.428571                       # average overall miss latency
system.cpu.icache.overall_avg_miss_latency::cpu.inst 219421.428571                       # average overall miss latency
system.cpu.icache.overall_avg_miss_latency::total 219421.428571                       # average overall miss latency
system.cpu.icache.blocked_cycles::no_mshrs            0                       # number of cycles access was blocked
system.cpu.icache.blocked_cycles::no_targets            0                       # number of cycles access was blocked
system.cpu.icache.blocked::no_mshrs                 0                       # number of cycles access was blocked
system.cpu.icache.blocked::no_targets               0                       # number of cycles access was blocked
system.cpu.icache.avg_blocked_cycles::no_mshrs          nan                       # average number of cycles each access was blocked
system.cpu.icache.avg_blocked_cycles::no_targets          nan                       # average number of cycles each access was blocked
system.cpu.icache.writebacks::writebacks           73                       # number of writebacks
system.cpu.icache.writebacks::total                73                       # number of writebacks
system.cpu.icache.ReadReq_mshr_misses::cpu.inst          420                       # number of ReadReq MSHR misses
system.cpu.icache.ReadReq_mshr_misses::total          420                       # number of ReadReq MSHR misses
system.cpu.icache.demand_mshr_misses::cpu.inst          420                       # number of demand (read+write) MSHR misses
system.cpu.icache.demand_mshr_misses::total          420                       # number of demand (read+write) MSHR misses
system.cpu.icache.overall_mshr_misses::cpu.inst          420                       # number of overall MSHR misses
system.cpu.icache.overall_mshr_misses::total          420                       # number of overall MSHR misses
system.cpu.icache.ReadReq_mshr_miss_latency::cpu.inst     91737000                       # number of ReadReq MSHR miss cycles
system.cpu.icache.ReadReq_mshr_miss_latency::total     91737000                       # number of ReadReq MSHR miss cycles
system.cpu.icache.demand_mshr_miss_latency::cpu.inst     91737000                       # number of demand (read+write) MSHR miss cycles
system.cpu.icache.demand_mshr_miss_latency::total     91737000                       # number of demand (read+write) MSHR miss cycles
system.cpu.icache.overall_mshr_miss_latency::cpu.inst     91737000                       # number of overall MSHR miss cycles
system.cpu.icache.overall_mshr_miss_latency::total     91737000                       # number of overall MSHR miss cycles
system.cpu.icache.ReadReq_mshr_miss_rate::cpu.inst     0.000007                       # mshr miss rate for ReadReq accesses
system.cpu.icache.ReadReq_mshr_miss_rate::total     0.000007                       # mshr miss rate for ReadReq accesses
system.cpu.icache.demand_mshr_miss_rate::cpu.inst     0.000007                       # mshr miss rate for demand accesses
system.cpu.icache.demand_mshr_miss_rate::total     0.000007                       # mshr miss rate for demand accesses
system.cpu.icache.overall_mshr_miss_rate::cpu.inst     0.000007                       # mshr miss rate for overall accesses
system.cpu.icache.overall_mshr_miss_rate::total     0.000007                       # mshr miss rate for overall accesses
system.cpu.icache.ReadReq_avg_mshr_miss_latency::cpu.inst 218421.428571                       # average ReadReq mshr miss latency
system.cpu.icache.ReadReq_avg_mshr_miss_latency::total 218421.428571                       # average ReadReq mshr miss latency
system.cpu.icache.demand_avg_mshr_miss_latency::cpu.inst 218421.428571                       # average overall mshr miss latency
system.cpu.icache.demand_avg_mshr_miss_latency::total 218421.428571                       # average overall mshr miss latency
system.cpu.icache.overall_avg_mshr_miss_latency::cpu.inst 218421.428571                       # average overall mshr miss latency
system.cpu.icache.overall_avg_mshr_miss_latency::total 218421.428571                       # average overall mshr miss latency
system.cpu.icache.replacements                     73                       # number of replacements
system.cpu.itb_walker_cache.tags.pwrStateResidencyTicks::UNDEFINED  91251473000                       # Cumulative time (in ticks) in various power states
system.cpu.itb_walker_cache.tags.tagsinuse            0                       # Cycle average of tags in use
system.cpu.itb_walker_cache.tags.total_refs            0                       # Total number of references to valid blocks.
system.cpu.itb_walker_cache.tags.sampled_refs            0                       # Sample count of references to valid blocks.
system.cpu.itb_walker_cache.tags.avg_refs          nan                       # Average number of references to valid blocks.
system.cpu.itb_walker_cache.tags.warmup_cycle            0                       # Cycle when the warmup percentage was hit.
system.cpu.itb_walker_cache.tags.tag_accesses            0                       # Number of tag accesses
system.cpu.itb_walker_cache.tags.data_accesses            0                       # Number of data accesses
system.cpu.itb_walker_cache.pwrStateResidencyTicks::UNDEFINED  91251473000                       # Cumulative time (in ticks) in various power states
system.cpu.itb_walker_cache.blocked_cycles::no_mshrs            0                       # number of cycles access was blocked
system.cpu.itb_walker_cache.blocked_cycles::no_targets            0                       # number of cycles access was blocked
system.cpu.itb_walker_cache.blocked::no_mshrs            0                       # number of cycles access was blocked
system.cpu.itb_walker_cache.blocked::no_targets            0                       # number of cycles access was blocked
system.cpu.itb_walker_cache.avg_blocked_cycles::no_mshrs          nan                       # average number of cycles each access was blocked
system.cpu.itb_walker_cache.avg_blocked_cycles::no_targets          nan                       # average number of cycles each access was blocked
system.cpu.itb_walker_cache.replacements            0                       # number of replacements
system.l2.tags.pwrStateResidencyTicks::UNDEFINED  91251473000                       # Cumulative time (in ticks) in various power states
system.l2.tags.tagsinuse                  2019.197732                       # Cycle average of tags in use
system.l2.tags.total_refs                      100407                       # Total number of references to valid blocks.
system.l2.tags.sampled_refs                     24295                       # Sample count of references to valid blocks.
system.l2.tags.avg_refs                      4.132826                       # Average number of references to valid blocks.
system.l2.tags.warmup_cycle                    428500                       # Cycle when the warmup percentage was hit.
system.l2.tags.occ_blocks::writebacks        1.430321                       # Average occupied blocks per requestor
system.l2.tags.occ_blocks::cpu.inst         11.283441                       # Average occupied blocks per requestor
system.l2.tags.occ_blocks::cpu.data       2006.483970                       # Average occupied blocks per requestor
system.l2.tags.occ_percent::writebacks       0.000698                       # Average percentage of cache occupancy
system.l2.tags.occ_percent::cpu.inst         0.005509                       # Average percentage of cache occupancy
system.l2.tags.occ_percent::cpu.data         0.979729                       # Average percentage of cache occupancy
system.l2.tags.occ_percent::total            0.985936                       # Average percentage of cache occupancy
system.l2.tags.occ_task_id_blocks::1024          2048                       # Occupied blocks per task id
system.l2.tags.age_task_id_blocks_1024::0           19                       # Occupied blocks per task id
system.l2.tags.age_task_id_blocks_1024::1          161                       # Occupied blocks per task id
system.l2.tags.age_task_id_blocks_1024::2           33                       # Occupied blocks per task id
system.l2.tags.age_task_id_blocks_1024::3           59                       # Occupied blocks per task id
system.l2.tags.age_task_id_blocks_1024::4         1776                       # Occupied blocks per task id
system.l2.tags.occ_task_id_percent::1024            1                       # Percentage of cache occupancy per task id
system.l2.tags.tag_accesses                    827551                       # Number of tag accesses
system.l2.tags.data_accesses                   827551                       # Number of data accesses
system.l2.pwrStateResidencyTicks::UNDEFINED  91251473000                       # Cumulative time (in ticks) in various power states
system.l2.WritebackDirty_hits::writebacks        43433                       # number of WritebackDirty hits
system.l2.WritebackDirty_hits::total            43433                       # number of WritebackDirty hits
system.l2.WritebackClean_hits::writebacks           73                       # number of WritebackClean hits
system.l2.WritebackClean_hits::total               73                       # number of WritebackClean hits
system.l2.UpgradeReq_hits::cpu.data              9538                       # number of UpgradeReq hits
system.l2.UpgradeReq_hits::total                 9538                       # number of UpgradeReq hits
system.l2.ReadExReq_hits::cpu.data                259                       # number of ReadExReq hits
system.l2.ReadExReq_hits::total                   259                       # number of ReadExReq hits
system.l2.ReadCleanReq_hits::cpu.inst               2                       # number of ReadCleanReq hits
system.l2.ReadCleanReq_hits::total                  2                       # number of ReadCleanReq hits
system.l2.ReadSharedReq_hits::cpu.data          21358                       # number of ReadSharedReq hits
system.l2.ReadSharedReq_hits::total             21358                       # number of ReadSharedReq hits
system.l2.demand_hits::cpu.inst                     2                       # number of demand (read+write) hits
system.l2.demand_hits::cpu.data                 21617                       # number of demand (read+write) hits
system.l2.demand_hits::total                    21619                       # number of demand (read+write) hits
system.l2.overall_hits::cpu.inst                    2                       # number of overall hits
system.l2.overall_hits::cpu.data                21617                       # number of overall hits
system.l2.overall_hits::total                   21619                       # number of overall hits
system.l2.ReadExReq_misses::cpu.data             6441                       # number of ReadExReq misses
system.l2.ReadExReq_misses::total                6441                       # number of ReadExReq misses
system.l2.ReadCleanReq_misses::cpu.inst           418                       # number of ReadCleanReq misses
system.l2.ReadCleanReq_misses::total              418                       # number of ReadCleanReq misses
system.l2.ReadSharedReq_misses::cpu.data        17386                       # number of ReadSharedReq misses
system.l2.ReadSharedReq_misses::total           17386                       # number of ReadSharedReq misses
system.l2.demand_misses::cpu.inst                 418                       # number of demand (read+write) misses
system.l2.demand_misses::cpu.data               23827                       # number of demand (read+write) misses
system.l2.demand_misses::total                  24245                       # number of demand (read+write) misses
system.l2.overall_misses::cpu.inst                418                       # number of overall misses
system.l2.overall_misses::cpu.data              23827                       # number of overall misses
system.l2.overall_misses::total                 24245                       # number of overall misses
system.l2.ReadExReq_miss_latency::cpu.data   1211583000                       # number of ReadExReq miss cycles
system.l2.ReadExReq_miss_latency::total    1211583000                       # number of ReadExReq miss cycles
system.l2.ReadCleanReq_miss_latency::cpu.inst     91084000                       # number of ReadCleanReq miss cycles
system.l2.ReadCleanReq_miss_latency::total     91084000                       # number of ReadCleanReq miss cycles
system.l2.ReadSharedReq_miss_latency::cpu.data   2923567500                       # number of ReadSharedReq miss cycles
system.l2.ReadSharedReq_miss_latency::total   2923567500                       # number of ReadSharedReq miss cycles
system.l2.demand_miss_latency::cpu.inst      91084000                       # number of demand (read+write) miss cycles
system.l2.demand_miss_latency::cpu.data    4135150500                       # number of demand (read+write) miss cycles
system.l2.demand_miss_latency::total       4226234500                       # number of demand (read+write) miss cycles
system.l2.overall_miss_latency::cpu.inst     91084000                       # number of overall miss cycles
system.l2.overall_miss_latency::cpu.data   4135150500                       # number of overall miss cycles
system.l2.overall_miss_latency::total      4226234500                       # number of overall miss cycles
system.l2.WritebackDirty_accesses::writebacks        43433                       # number of WritebackDirty accesses(hits+misses)
system.l2.WritebackDirty_accesses::total        43433                       # number of WritebackDirty accesses(hits+misses)
system.l2.WritebackClean_accesses::writebacks           73                       # number of WritebackClean accesses(hits+misses)
system.l2.WritebackClean_accesses::total           73                       # number of WritebackClean accesses(hits+misses)
system.l2.UpgradeReq_accesses::cpu.data          9538                       # number of UpgradeReq accesses(hits+misses)
system.l2.UpgradeReq_accesses::total             9538                       # number of UpgradeReq accesses(hits+misses)
system.l2.ReadExReq_accesses::cpu.data           6700                       # number of ReadExReq accesses(hits+misses)
system.l2.ReadExReq_accesses::total              6700                       # number of ReadExReq accesses(hits+misses)
system.l2.ReadCleanReq_accesses::cpu.inst          420                       # number of ReadCleanReq accesses(hits+misses)
system.l2.ReadCleanReq_accesses::total            420                       # number of ReadCleanReq accesses(hits+misses)
system.l2.ReadSharedReq_accesses::cpu.data        38744                       # number of ReadSharedReq accesses(hits+misses)
system.l2.ReadSharedReq_accesses::total         38744                       # number of ReadSharedReq accesses(hits+misses)
system.l2.demand_accesses::cpu.inst               420                       # number of demand (read+write) accesses
system.l2.demand_accesses::cpu.data             45444                       # number of demand (read+write) accesses
system.l2.demand_accesses::total                45864                       # number of demand (read+write) accesses
system.l2.overall_accesses::cpu.inst              420                       # number of overall (read+write) accesses
system.l2.overall_accesses::cpu.data            45444                       # number of overall (read+write) accesses
system.l2.overall_accesses::total               45864                       # number of overall (read+write) accesses
system.l2.ReadExReq_miss_rate::cpu.data      0.961343                       # miss rate for ReadExReq accesses
system.l2.ReadExReq_miss_rate::total         0.961343                       # miss rate for ReadExReq accesses
system.l2.ReadCleanReq_miss_rate::cpu.inst     0.995238                       # miss rate for ReadCleanReq accesses
system.l2.ReadCleanReq_miss_rate::total      0.995238                       # miss rate for ReadCleanReq accesses
system.l2.ReadSharedReq_miss_rate::cpu.data     0.448740                       # miss rate for ReadSharedReq accesses
system.l2.ReadSharedReq_miss_rate::total     0.448740                       # miss rate for ReadSharedReq accesses
system.l2.demand_miss_rate::cpu.inst         0.995238                       # miss rate for demand accesses
system.l2.demand_miss_rate::cpu.data         0.524316                       # miss rate for demand accesses
system.l2.demand_miss_rate::total            0.528628                       # miss rate for demand accesses
system.l2.overall_miss_rate::cpu.inst        0.995238                       # miss rate for overall accesses
system.l2.overall_miss_rate::cpu.data        0.524316                       # miss rate for overall accesses
system.l2.overall_miss_rate::total           0.528628                       # miss rate for overall accesses
system.l2.ReadExReq_avg_miss_latency::cpu.data 188104.797392                       # average ReadExReq miss latency
system.l2.ReadExReq_avg_miss_latency::total 188104.797392                       # average ReadExReq miss latency
system.l2.ReadCleanReq_avg_miss_latency::cpu.inst 217904.306220                       # average ReadCleanReq miss latency
system.l2.ReadCleanReq_avg_miss_latency::total 217904.306220                       # average ReadCleanReq miss latency
system.l2.ReadSharedReq_avg_miss_latency::cpu.data 168156.418958                       # average ReadSharedReq miss latency
system.l2.ReadSharedReq_avg_miss_latency::total 168156.418958                       # average ReadSharedReq miss latency
system.l2.demand_avg_miss_latency::cpu.inst 217904.306220                       # average overall miss latency
system.l2.demand_avg_miss_latency::cpu.data 173548.936081                       # average overall miss latency
system.l2.demand_avg_miss_latency::total 174313.652299                       # average overall miss latency
system.l2.overall_avg_miss_latency::cpu.inst 217904.306220                       # average overall miss latency
system.l2.overall_avg_miss_latency::cpu.data 173548.936081                       # average overall miss latency
system.l2.overall_avg_miss_latency::total 174313.652299                       # average overall miss latency
system.l2.blocked_cycles::no_mshrs                  0                       # number of cycles access was blocked
system.l2.blocked_cycles::no_targets                0                       # number of cycles access was blocked
system.l2.blocked::no_mshrs                         0                       # number of cycles access was blocked
system.l2.blocked::no_targets                       0                       # number of cycles access was blocked
system.l2.avg_blocked_cycles::no_mshrs            nan                       # average number of cycles each access was blocked
system.l2.avg_blocked_cycles::no_targets          nan                       # average number of cycles each access was blocked
system.l2.writebacks::writebacks                21787                       # number of writebacks
system.l2.writebacks::total                     21787                       # number of writebacks
system.l2.ReadExReq_mshr_misses::cpu.data         6441                       # number of ReadExReq MSHR misses
system.l2.ReadExReq_mshr_misses::total           6441                       # number of ReadExReq MSHR misses
system.l2.ReadCleanReq_mshr_misses::cpu.inst          418                       # number of ReadCleanReq MSHR misses
system.l2.ReadCleanReq_mshr_misses::total          418                       # number of ReadCleanReq MSHR misses
system.l2.ReadSharedReq_mshr_misses::cpu.data        17386                       # number of ReadSharedReq MSHR misses
system.l2.ReadSharedReq_mshr_misses::total        17386                       # number of ReadSharedReq MSHR misses
system.l2.demand_mshr_misses::cpu.inst            418                       # number of demand (read+write) MSHR misses
system.l2.demand_mshr_misses::cpu.data          23827                       # number of demand (read+write) MSHR misses
system.l2.demand_mshr_misses::total             24245                       # number of demand (read+write) MSHR misses
system.l2.overall_mshr_misses::cpu.inst           418                       # number of overall MSHR misses
system.l2.overall_mshr_misses::cpu.data         23827                       # number of overall MSHR misses
system.l2.overall_mshr_misses::total            24245                       # number of overall MSHR misses
system.l2.ReadExReq_mshr_miss_latency::cpu.data   1147173000                       # number of ReadExReq MSHR miss cycles
system.l2.ReadExReq_mshr_miss_latency::total   1147173000                       # number of ReadExReq MSHR miss cycles
system.l2.ReadCleanReq_mshr_miss_latency::cpu.inst     86904000                       # number of ReadCleanReq MSHR miss cycles
system.l2.ReadCleanReq_mshr_miss_latency::total     86904000                       # number of ReadCleanReq MSHR miss cycles
system.l2.ReadSharedReq_mshr_miss_latency::cpu.data   2749707500                       # number of ReadSharedReq MSHR miss cycles
system.l2.ReadSharedReq_mshr_miss_latency::total   2749707500                       # number of ReadSharedReq MSHR miss cycles
system.l2.demand_mshr_miss_latency::cpu.inst     86904000                       # number of demand (read+write) MSHR miss cycles
system.l2.demand_mshr_miss_latency::cpu.data   3896880500                       # number of demand (read+write) MSHR miss cycles
system.l2.demand_mshr_miss_latency::total   3983784500                       # number of demand (read+write) MSHR miss cycles
system.l2.overall_mshr_miss_latency::cpu.inst     86904000                       # number of overall MSHR miss cycles
system.l2.overall_mshr_miss_latency::cpu.data   3896880500                       # number of overall MSHR miss cycles
system.l2.overall_mshr_miss_latency::total   3983784500                       # number of overall MSHR miss cycles
system.l2.ReadExReq_mshr_miss_rate::cpu.data     0.961343                       # mshr miss rate for ReadExReq accesses
system.l2.ReadExReq_mshr_miss_rate::total     0.961343                       # mshr miss rate for ReadExReq accesses
system.l2.ReadCleanReq_mshr_miss_rate::cpu.inst     0.995238                       # mshr miss rate for ReadCleanReq accesses
system.l2.ReadCleanReq_mshr_miss_rate::total     0.995238                       # mshr miss rate for ReadCleanReq accesses
system.l2.ReadSharedReq_mshr_miss_rate::cpu.data     0.448740                       # mshr miss rate for ReadSharedReq accesses
system.l2.ReadSharedReq_mshr_miss_rate::total     0.448740                       # mshr miss rate for ReadSharedReq accesses
system.l2.demand_mshr_miss_rate::cpu.inst     0.995238                       # mshr miss rate for demand accesses
system.l2.demand_mshr_miss_rate::cpu.data     0.524316                       # mshr miss rate for demand accesses
system.l2.demand_mshr_miss_rate::total       0.528628                       # mshr miss rate for demand accesses
system.l2.overall_mshr_miss_rate::cpu.inst     0.995238                       # mshr miss rate for overall accesses
system.l2.overall_mshr_miss_rate::cpu.data     0.524316                       # mshr miss rate for overall accesses
system.l2.overall_mshr_miss_rate::total      0.528628                       # mshr miss rate for overall accesses
system.l2.ReadExReq_avg_mshr_miss_latency::cpu.data 178104.797392                       # average ReadExReq mshr miss latency
system.l2.ReadExReq_avg_mshr_miss_latency::total 178104.797392                       # average ReadExReq mshr miss latency
system.l2.ReadCleanReq_avg_mshr_miss_latency::cpu.inst 207904.306220                       # average ReadCleanReq mshr miss latency
system.l2.ReadCleanReq_avg_mshr_miss_latency::total 207904.306220                       # average ReadCleanReq mshr miss latency
system.l2.ReadSharedReq_avg_mshr_miss_latency::cpu.data 158156.418958                       # average ReadSharedReq mshr miss latency
system.l2.ReadSharedReq_avg_mshr_miss_latency::total 158156.418958                       # average ReadSharedReq mshr miss latency
system.l2.demand_avg_mshr_miss_latency::cpu.inst 207904.306220                       # average overall mshr miss latency
system.l2.demand_avg_mshr_miss_latency::cpu.data 163548.936081                       # average overall mshr miss latency
system.l2.demand_avg_mshr_miss_latency::total 164313.652299                       # average overall mshr miss latency
system.l2.overall_avg_mshr_miss_latency::cpu.inst 207904.306220                       # average overall mshr miss latency
system.l2.overall_avg_mshr_miss_latency::cpu.data 163548.936081                       # average overall mshr miss latency
system.l2.overall_avg_mshr_miss_latency::total 164313.652299                       # average overall mshr miss latency
system.l2.replacements                          22247                       # number of replacements
system.l3.tags.pwrStateResidencyTicks::UNDEFINED  91251473000                       # Cumulative time (in ticks) in various power states
system.l3.tags.tagsinuse                  3923.367733                       # Cycle average of tags in use
system.l3.tags.total_refs                       46100                       # Total number of references to valid blocks.
system.l3.tags.sampled_refs                     19227                       # Sample count of references to valid blocks.
system.l3.tags.avg_refs                      2.397670                       # Average number of references to valid blocks.
system.l3.tags.warmup_cycle                    418000                       # Cycle when the warmup percentage was hit.
system.l3.tags.occ_blocks::writebacks      604.993134                       # Average occupied blocks per requestor
system.l3.tags.occ_blocks::cpu.inst         14.888992                       # Average occupied blocks per requestor
system.l3.tags.occ_blocks::cpu.data       3303.485607                       # Average occupied blocks per requestor
system.l3.tags.occ_percent::writebacks       0.147703                       # Average percentage of cache occupancy
system.l3.tags.occ_percent::cpu.inst         0.003635                       # Average percentage of cache occupancy
system.l3.tags.occ_percent::cpu.data         0.806515                       # Average percentage of cache occupancy
system.l3.tags.occ_percent::total            0.957853                       # Average percentage of cache occupancy
system.l3.tags.occ_task_id_blocks::1024          4096                       # Occupied blocks per task id
system.l3.tags.age_task_id_blocks_1024::0           16                       # Occupied blocks per task id
system.l3.tags.age_task_id_blocks_1024::1          128                       # Occupied blocks per task id
system.l3.tags.age_task_id_blocks_1024::2           33                       # Occupied blocks per task id
system.l3.tags.age_task_id_blocks_1024::3           39                       # Occupied blocks per task id
system.l3.tags.age_task_id_blocks_1024::4         3880                       # Occupied blocks per task id
system.l3.tags.occ_task_id_percent::1024            1                       # Percentage of cache occupancy per task id
system.l3.tags.tag_accesses                     65422                       # Number of tag accesses
system.l3.tags.data_accesses                    65422                       # Number of data accesses
system.l3.pwrStateResidencyTicks::UNDEFINED  91251473000                       # Cumulative time (in ticks) in various power states
system.l3.WritebackDirty_hits::writebacks        21787                       # number of WritebackDirty hits
system.l3.WritebackDirty_hits::total            21787                       # number of WritebackDirty hits
system.l3.ReadExReq_hits::cpu.data                 35                       # number of ReadExReq hits
system.l3.ReadExReq_hits::total                    35                       # number of ReadExReq hits
system.l3.ReadSharedReq_hits::cpu.data          10562                       # number of ReadSharedReq hits
system.l3.ReadSharedReq_hits::total             10562                       # number of ReadSharedReq hits
system.l3.demand_hits::cpu.data                 10597                       # number of demand (read+write) hits
system.l3.demand_hits::total                    10597                       # number of demand (read+write) hits
system.l3.overall_hits::cpu.data                10597                       # number of overall hits
system.l3.overall_hits::total                   10597                       # number of overall hits
system.l3.ReadExReq_misses::cpu.data             6406                       # number of ReadExReq misses
system.l3.ReadExReq_misses::total                6406                       # number of ReadExReq misses
system.l3.ReadSharedReq_misses::cpu.inst          418                       # number of ReadSharedReq misses
system.l3.ReadSharedReq_misses::cpu.data         6824                       # number of ReadSharedReq misses
system.l3.ReadSharedReq_misses::total            7242                       # number of ReadSharedReq misses
system.l3.demand_misses::cpu.inst                 418                       # number of demand (read+write) misses
system.l3.demand_misses::cpu.data               13230                       # number of demand (read+write) misses
system.l3.demand_misses::total                  13648                       # number of demand (read+write) misses
system.l3.overall_misses::cpu.inst                418                       # number of overall misses
system.l3.overall_misses::cpu.data              13230                       # number of overall misses
system.l3.overall_misses::total                 13648                       # number of overall misses
system.l3.ReadExReq_miss_latency::cpu.data   1075954500                       # number of ReadExReq miss cycles
system.l3.ReadExReq_miss_latency::total    1075954500                       # number of ReadExReq miss cycles
system.l3.ReadSharedReq_miss_latency::cpu.inst     82306000                       # number of ReadSharedReq miss cycles
system.l3.ReadSharedReq_miss_latency::cpu.data   2436409000                       # number of ReadSharedReq miss cycles
system.l3.ReadSharedReq_miss_latency::total   2518715000                       # number of ReadSharedReq miss cycles
system.l3.demand_miss_latency::cpu.inst      82306000                       # number of demand (read+write) miss cycles
system.l3.demand_miss_latency::cpu.data    3512363500                       # number of demand (read+write) miss cycles
system.l3.demand_miss_latency::total       3594669500                       # number of demand (read+write) miss cycles
system.l3.overall_miss_latency::cpu.inst     82306000                       # number of overall miss cycles
system.l3.overall_miss_latency::cpu.data   3512363500                       # number of overall miss cycles
system.l3.overall_miss_latency::total      3594669500                       # number of overall miss cycles
system.l3.WritebackDirty_accesses::writebacks        21787                       # number of WritebackDirty accesses(hits+misses)
system.l3.WritebackDirty_accesses::total        21787                       # number of WritebackDirty accesses(hits+misses)
system.l3.ReadExReq_accesses::cpu.data           6441                       # number of ReadExReq accesses(hits+misses)
system.l3.ReadExReq_accesses::total              6441                       # number of ReadExReq accesses(hits+misses)
system.l3.ReadSharedReq_accesses::cpu.inst          418                       # number of ReadSharedReq accesses(hits+misses)
system.l3.ReadSharedReq_accesses::cpu.data        17386                       # number of ReadSharedReq accesses(hits+misses)
system.l3.ReadSharedReq_accesses::total         17804                       # number of ReadSharedReq accesses(hits+misses)
system.l3.demand_accesses::cpu.inst               418                       # number of demand (read+write) accesses
system.l3.demand_accesses::cpu.data             23827                       # number of demand (read+write) accesses
system.l3.demand_accesses::total                24245                       # number of demand (read+write) accesses
system.l3.overall_accesses::cpu.inst              418                       # number of overall (read+write) accesses
system.l3.overall_accesses::cpu.data            23827                       # number of overall (read+write) accesses
system.l3.overall_accesses::total               24245                       # number of overall (read+write) accesses
system.l3.ReadExReq_miss_rate::cpu.data      0.994566                       # miss rate for ReadExReq accesses
system.l3.ReadExReq_miss_rate::total         0.994566                       # miss rate for ReadExReq accesses
system.l3.ReadSharedReq_miss_rate::cpu.inst            1                       # miss rate for ReadSharedReq accesses
system.l3.ReadSharedReq_miss_rate::cpu.data     0.392500                       # miss rate for ReadSharedReq accesses
system.l3.ReadSharedReq_miss_rate::total     0.406763                       # miss rate for ReadSharedReq accesses
system.l3.demand_miss_rate::cpu.inst                1                       # miss rate for demand accesses
system.l3.demand_miss_rate::cpu.data         0.555252                       # miss rate for demand accesses
system.l3.demand_miss_rate::total            0.562920                       # miss rate for demand accesses
system.l3.overall_miss_rate::cpu.inst               1                       # miss rate for overall accesses
system.l3.overall_miss_rate::cpu.data        0.555252                       # miss rate for overall accesses
system.l3.overall_miss_rate::total           0.562920                       # miss rate for overall accesses
system.l3.ReadExReq_avg_miss_latency::cpu.data 167960.427724                       # average ReadExReq miss latency
system.l3.ReadExReq_avg_miss_latency::total 167960.427724                       # average ReadExReq miss latency
system.l3.ReadSharedReq_avg_miss_latency::cpu.inst 196904.306220                       # average ReadSharedReq miss latency
system.l3.ReadSharedReq_avg_miss_latency::cpu.data 357035.316530                       # average ReadSharedReq miss latency
system.l3.ReadSharedReq_avg_miss_latency::total 347792.736813                       # average ReadSharedReq miss latency
system.l3.demand_avg_miss_latency::cpu.inst 196904.306220                       # average overall miss latency
system.l3.demand_avg_miss_latency::cpu.data 265484.769463                       # average overall miss latency
system.l3.demand_avg_miss_latency::total 263384.342028                       # average overall miss latency
system.l3.overall_avg_miss_latency::cpu.inst 196904.306220                       # average overall miss latency
system.l3.overall_avg_miss_latency::cpu.data 265484.769463                       # average overall miss latency
system.l3.overall_avg_miss_latency::total 263384.342028                       # average overall miss latency
system.l3.blocked_cycles::no_mshrs                  0                       # number of cycles access was blocked
system.l3.blocked_cycles::no_targets                0                       # number of cycles access was blocked
system.l3.blocked::no_mshrs                         0                       # number of cycles access was blocked
system.l3.blocked::no_targets                       0                       # number of cycles access was blocked
system.l3.avg_blocked_cycles::no_mshrs            nan                       # average number of cycles each access was blocked
system.l3.avg_blocked_cycles::no_targets          nan                       # average number of cycles each access was blocked
system.l3.writebacks::writebacks                 9012                       # number of writebacks
system.l3.writebacks::total                      9012                       # number of writebacks
system.l3.CleanEvict_mshr_misses::writebacks           95                       # number of CleanEvict MSHR misses
system.l3.CleanEvict_mshr_misses::total            95                       # number of CleanEvict MSHR misses
system.l3.ReadExReq_mshr_misses::cpu.data         6406                       # number of ReadExReq MSHR misses
system.l3.ReadExReq_mshr_misses::total           6406                       # number of ReadExReq MSHR misses
system.l3.ReadSharedReq_mshr_misses::cpu.inst          418                       # number of ReadSharedReq MSHR misses
system.l3.ReadSharedReq_mshr_misses::cpu.data         6824                       # number of ReadSharedReq MSHR misses
system.l3.ReadSharedReq_mshr_misses::total         7242                       # number of ReadSharedReq MSHR misses
system.l3.demand_mshr_misses::cpu.inst            418                       # number of demand (read+write) MSHR misses
system.l3.demand_mshr_misses::cpu.data          13230                       # number of demand (read+write) MSHR misses
system.l3.demand_mshr_misses::total             13648                       # number of demand (read+write) MSHR misses
system.l3.overall_mshr_misses::cpu.inst           418                       # number of overall MSHR misses
system.l3.overall_mshr_misses::cpu.data         13230                       # number of overall MSHR misses
system.l3.overall_mshr_misses::total            13648                       # number of overall MSHR misses
system.l3.ReadExReq_mshr_miss_latency::cpu.data   1011894500                       # number of ReadExReq MSHR miss cycles
system.l3.ReadExReq_mshr_miss_latency::total   1011894500                       # number of ReadExReq MSHR miss cycles
system.l3.ReadSharedReq_mshr_miss_latency::cpu.inst     78126000                       # number of ReadSharedReq MSHR miss cycles
system.l3.ReadSharedReq_mshr_miss_latency::cpu.data   2368169000                       # number of ReadSharedReq MSHR miss cycles
system.l3.ReadSharedReq_mshr_miss_latency::total   2446295000                       # number of ReadSharedReq MSHR miss cycles
system.l3.demand_mshr_miss_latency::cpu.inst     78126000                       # number of demand (read+write) MSHR miss cycles
system.l3.demand_mshr_miss_latency::cpu.data   3380063500                       # number of demand (read+write) MSHR miss cycles
system.l3.demand_mshr_miss_latency::total   3458189500                       # number of demand (read+write) MSHR miss cycles
system.l3.overall_mshr_miss_latency::cpu.inst     78126000                       # number of overall MSHR miss cycles
system.l3.overall_mshr_miss_latency::cpu.data   3380063500                       # number of overall MSHR miss cycles
system.l3.overall_mshr_miss_latency::total   3458189500                       # number of overall MSHR miss cycles
system.l3.CleanEvict_mshr_miss_rate::writebacks          inf                       # mshr miss rate for CleanEvict accesses
system.l3.CleanEvict_mshr_miss_rate::total          inf                       # mshr miss rate for CleanEvict accesses
system.l3.ReadExReq_mshr_miss_rate::cpu.data     0.994566                       # mshr miss rate for ReadExReq accesses
system.l3.ReadExReq_mshr_miss_rate::total     0.994566                       # mshr miss rate for ReadExReq accesses
system.l3.ReadSharedReq_mshr_miss_rate::cpu.inst            1                       # mshr miss rate for ReadSharedReq accesses
system.l3.ReadSharedReq_mshr_miss_rate::cpu.data     0.392500                       # mshr miss rate for ReadSharedReq accesses
system.l3.ReadSharedReq_mshr_miss_rate::total     0.406763                       # mshr miss rate for ReadSharedReq accesses
system.l3.demand_mshr_miss_rate::cpu.inst            1                       # mshr miss rate for demand accesses
system.l3.demand_mshr_miss_rate::cpu.data     0.555252                       # mshr miss rate for demand accesses
system.l3.demand_mshr_miss_rate::total       0.562920                       # mshr miss rate for demand accesses
system.l3.overall_mshr_miss_rate::cpu.inst            1                       # mshr miss rate for overall accesses
system.l3.overall_mshr_miss_rate::cpu.data     0.555252                       # mshr miss rate for overall accesses
system.l3.overall_mshr_miss_rate::total      0.562920                       # mshr miss rate for overall accesses
system.l3.ReadExReq_avg_mshr_miss_latency::cpu.data 157960.427724                       # average ReadExReq mshr miss latency
system.l3.ReadExReq_avg_mshr_miss_latency::total 157960.427724                       # average ReadExReq mshr miss latency
system.l3.ReadSharedReq_avg_mshr_miss_latency::cpu.inst 186904.306220                       # average ReadSharedReq mshr miss latency
system.l3.ReadSharedReq_avg_mshr_miss_latency::cpu.data 347035.316530                       # average ReadSharedReq mshr miss latency
system.l3.ReadSharedReq_avg_mshr_miss_latency::total 337792.736813                       # average ReadSharedReq mshr miss latency
system.l3.demand_avg_mshr_miss_latency::cpu.inst 186904.306220                       # average overall mshr miss latency
system.l3.demand_avg_mshr_miss_latency::cpu.data 255484.769463                       # average overall mshr miss latency
system.l3.demand_avg_mshr_miss_latency::total 253384.342028                       # average overall mshr miss latency
system.l3.overall_avg_mshr_miss_latency::cpu.inst 186904.306220                       # average overall mshr miss latency
system.l3.overall_avg_mshr_miss_latency::cpu.data 255484.769463                       # average overall mshr miss latency
system.l3.overall_avg_mshr_miss_latency::total 253384.342028                       # average overall mshr miss latency
system.l3.replacements                          15131                       # number of replacements
system.membus.snoop_filter.tot_requests         24151                       # Total number of requests made to the snoop filter.
system.membus.snoop_filter.hit_single_requests        10503                       # Number of requests hitting in the snoop filter with a single holder of the requested data.
system.membus.snoop_filter.hit_multi_requests            0                       # Number of requests hitting in the snoop filter with multiple (>1) holders of the requested data.
system.membus.snoop_filter.tot_snoops               0                       # Total number of snoops made to the snoop filter.
system.membus.snoop_filter.hit_single_snoops            0                       # Number of snoops hitting in the snoop filter with a single holder of the requested data.
system.membus.snoop_filter.hit_multi_snoops            0                       # Number of snoops hitting in the snoop filter with multiple (>1) holders of the requested data.
system.membus.pwrStateResidencyTicks::UNDEFINED  91251473000                       # Cumulative time (in ticks) in various power states
system.membus.trans_dist::ReadResp               7242                       # Transaction distribution
system.membus.trans_dist::WritebackDirty         9012                       # Transaction distribution
system.membus.trans_dist::CleanEvict              135                       # Transaction distribution
system.membus.trans_dist::ReadExReq              6406                       # Transaction distribution
system.membus.trans_dist::ReadExResp             6406                       # Transaction distribution
system.membus.trans_dist::ReadSharedReq          7242                       # Transaction distribution
system.membus.pkt_count_system.l3.mem_side::system.mem_ctrls.port        36443                       # Packet count per connected master and slave (bytes)
system.membus.pkt_count_system.l3.mem_side::total        36443                       # Packet count per connected master and slave (bytes)
system.membus.pkt_count::total                  36443                       # Packet count per connected master and slave (bytes)
system.membus.pkt_size_system.l3.mem_side::system.mem_ctrls.port      1450240                       # Cumulative packet size per connected master and slave (bytes)
system.membus.pkt_size_system.l3.mem_side::total      1450240                       # Cumulative packet size per connected master and slave (bytes)
system.membus.pkt_size::total                 1450240                       # Cumulative packet size per connected master and slave (bytes)
system.membus.snoops                                0                       # Total snoops (count)
system.membus.snoopTraffic                          0                       # Total snoop traffic (bytes)
system.membus.snoop_fanout::samples             13648                       # Request fanout histogram
system.membus.snoop_fanout::mean                    0                       # Request fanout histogram
system.membus.snoop_fanout::stdev                   0                       # Request fanout histogram
system.membus.snoop_fanout::underflows              0      0.00%      0.00% # Request fanout histogram
system.membus.snoop_fanout::0                   13648    100.00%    100.00% # Request fanout histogram
system.membus.snoop_fanout::1                       0      0.00%    100.00% # Request fanout histogram
system.membus.snoop_fanout::overflows               0      0.00%    100.00% # Request fanout histogram
system.membus.snoop_fanout::min_value               0                       # Request fanout histogram
system.membus.snoop_fanout::max_value               0                       # Request fanout histogram
system.membus.snoop_fanout::total               13648                       # Request fanout histogram
system.membus.reqLayer2.occupancy            60337500                       # Layer occupancy (ticks)
system.membus.reqLayer2.utilization               0.1                       # Layer utilization (%)
system.membus.respLayer1.occupancy           68245500                       # Layer occupancy (ticks)
system.membus.respLayer1.utilization              0.1                       # Layer utilization (%)
system.tol2bus.snoop_filter.tot_requests       100407                       # Total number of requests made to the snoop filter.
system.tol2bus.snoop_filter.hit_single_requests        54543                       # Number of requests hitting in the snoop filter with a single holder of the requested data.
system.tol2bus.snoop_filter.hit_multi_requests            0                       # Number of requests hitting in the snoop filter with multiple (>1) holders of the requested data.
system.tol2bus.snoop_filter.tot_snoops           2794                       # Total number of snoops made to the snoop filter.
system.tol2bus.snoop_filter.hit_single_snoops         2794                       # Number of snoops hitting in the snoop filter with a single holder of the requested data.
system.tol2bus.snoop_filter.hit_multi_snoops            0                       # Number of snoops hitting in the snoop filter with multiple (>1) holders of the requested data.
system.tol2bus.pwrStateResidencyTicks::UNDEFINED  91251473000                       # Cumulative time (in ticks) in various power states
system.tol2bus.trans_dist::ReadResp             39164                       # Transaction distribution
system.tol2bus.trans_dist::WritebackDirty        74232                       # Transaction distribution
system.tol2bus.trans_dist::WritebackClean           73                       # Transaction distribution
system.tol2bus.trans_dist::CleanEvict            8078                       # Transaction distribution
system.tol2bus.trans_dist::UpgradeReq            9538                       # Transaction distribution
system.tol2bus.trans_dist::UpgradeResp           9538                       # Transaction distribution
system.tol2bus.trans_dist::ReadExReq             6700                       # Transaction distribution
system.tol2bus.trans_dist::ReadExResp            6700                       # Transaction distribution
system.tol2bus.trans_dist::ReadCleanReq           420                       # Transaction distribution
system.tol2bus.trans_dist::ReadSharedReq        38744                       # Transaction distribution
system.tol2bus.pkt_count_system.cpu.icache.mem_side::system.l2.cpu_side          913                       # Packet count per connected master and slave (bytes)
system.tol2bus.pkt_count_system.cpu.dcache.mem_side::system.l2.cpu_side       154896                       # Packet count per connected master and slave (bytes)
system.tol2bus.pkt_count::total                155809                       # Packet count per connected master and slave (bytes)
system.tol2bus.pkt_size_system.cpu.icache.mem_side::system.l2.cpu_side        31552                       # Cumulative packet size per connected master and slave (bytes)
system.tol2bus.pkt_size_system.cpu.dcache.mem_side::system.l2.cpu_side      5688128                       # Cumulative packet size per connected master and slave (bytes)
system.tol2bus.pkt_size::total                5719680                       # Cumulative packet size per connected master and slave (bytes)
system.tol2bus.snoops                           37378                       # Total snoops (count)
system.tol2bus.snoopTraffic                   1971136                       # Total snoop traffic (bytes)
system.tol2bus.snoop_fanout::samples            92780                       # Request fanout histogram
system.tol2bus.snoop_fanout::mean            0.030114                       # Request fanout histogram
system.tol2bus.snoop_fanout::stdev           0.170903                       # Request fanout histogram
system.tol2bus.snoop_fanout::underflows             0      0.00%      0.00% # Request fanout histogram
system.tol2bus.snoop_fanout::0                  89986     96.99%     96.99% # Request fanout histogram
system.tol2bus.snoop_fanout::1                   2794      3.01%    100.00% # Request fanout histogram
system.tol2bus.snoop_fanout::2                      0      0.00%    100.00% # Request fanout histogram
system.tol2bus.snoop_fanout::3                      0      0.00%    100.00% # Request fanout histogram
system.tol2bus.snoop_fanout::4                      0      0.00%    100.00% # Request fanout histogram
system.tol2bus.snoop_fanout::overflows              0      0.00%    100.00% # Request fanout histogram
system.tol2bus.snoop_fanout::min_value              0                       # Request fanout histogram
system.tol2bus.snoop_fanout::max_value              1                       # Request fanout histogram
system.tol2bus.snoop_fanout::total              92780                       # Request fanout histogram
system.tol2bus.reqLayer0.occupancy           93709500                       # Layer occupancy (ticks)
system.tol2bus.reqLayer0.utilization              0.1                       # Layer utilization (%)
system.tol2bus.respLayer0.occupancy            630000                       # Layer occupancy (ticks)
system.tol2bus.respLayer0.utilization             0.0                       # Layer utilization (%)
system.tol2bus.respLayer1.occupancy          72935000                       # Layer occupancy (ticks)
system.tol2bus.respLayer1.utilization             0.1                       # Layer utilization (%)
system.tol3bus.pwrStateResidencyTicks::UNDEFINED  91251473000                       # Cumulative time (in ticks) in various power states
system.tol3bus.trans_dist::ReadResp             17804                       # Transaction distribution
system.tol3bus.trans_dist::WritebackDirty        30799                       # Transaction distribution
system.tol3bus.trans_dist::CleanEvict            6282                       # Transaction distribution
system.tol3bus.trans_dist::ReadExReq             6441                       # Transaction distribution
system.tol3bus.trans_dist::ReadExResp            6441                       # Transaction distribution
system.tol3bus.trans_dist::ReadSharedReq        17804                       # Transaction distribution
system.tol3bus.pkt_count_system.l2.mem_side::system.l3.cpu_side        70440                       # Packet count per connected master and slave (bytes)
system.tol3bus.pkt_size_system.l2.mem_side::system.l3.cpu_side      2946048                       # Cumulative packet size per connected master and slave (bytes)
system.tol3bus.snoops                           15131                       # Total snoops (count)
system.tol3bus.snoopTraffic                    576768                       # Total snoop traffic (bytes)
system.tol3bus.snoop_fanout::samples            61337                       # Request fanout histogram
system.tol3bus.snoop_fanout::mean            0.246686                       # Request fanout histogram
system.tol3bus.snoop_fanout::stdev           0.431086                       # Request fanout histogram
system.tol3bus.snoop_fanout::underflows             0      0.00%      0.00% # Request fanout histogram
system.tol3bus.snoop_fanout::0                  46206     75.33%     75.33% # Request fanout histogram
system.tol3bus.snoop_fanout::1                  15131     24.67%    100.00% # Request fanout histogram
system.tol3bus.snoop_fanout::overflows              0      0.00%    100.00% # Request fanout histogram
system.tol3bus.snoop_fanout::min_value              0                       # Request fanout histogram
system.tol3bus.snoop_fanout::max_value              1                       # Request fanout histogram
system.tol3bus.snoop_fanout::total              61337                       # Request fanout histogram
system.tol3bus.reqLayer0.occupancy           44895489                       # Layer occupancy (ticks)
system.tol3bus.reqLayer0.utilization              0.0                       # Layer utilization (%)
system.tol3bus.respLayer0.occupancy          36367511                       # Layer occupancy (ticks)
system.tol3bus.respLayer0.utilization             0.0                       # Layer utilization (%)

---------- End Simulation Statistics   ----------
