
---------- Begin Simulation Statistics ----------
sim_seconds                                  0.092225                       # Number of seconds simulated
sim_ticks                                 92225317000                       # Number of ticks simulated
final_tick                                92225317000                       # Number of ticks from beginning of simulation (restored from checkpoints and never reset)
sim_freq                                 1000000000000                       # Frequency of simulated ticks
host_inst_rate                                 769193                       # Simulator instruction rate (inst/s)
host_op_rate                                  1266502                       # Simulator op (including micro ops) rate (op/s)
host_tick_rate                             1590846577                       # Simulator tick rate (ticks/s)
host_mem_usage                                 663228                       # Number of bytes of host memory used
host_seconds                                    57.97                       # Real time elapsed on the host
sim_insts                                    44592025                       # Number of instructions simulated
sim_ops                                      73422276                       # Number of ops (including micro ops) simulated
system.voltage_domain.voltage                       1                       # Voltage in Volts
system.clk_domain.clock                          1000                       # Clock period in ticks
system.mem_ctrls.pwrStateResidencyTicks::UNDEFINED  92225317000                       # Cumulative time (in ticks) in various power states
system.mem_ctrls.bytes_read::cpu.inst           26752                       # Number of bytes read from this memory
system.mem_ctrls.bytes_read::cpu.data         1035136                       # Number of bytes read from this memory
system.mem_ctrls.bytes_read::total            1061888                       # Number of bytes read from this memory
system.mem_ctrls.bytes_inst_read::cpu.inst        26752                       # Number of instructions bytes read from this memory
system.mem_ctrls.bytes_inst_read::total         26752                       # Number of instructions bytes read from this memory
system.mem_ctrls.bytes_written::writebacks       772160                       # Number of bytes written to this memory
system.mem_ctrls.bytes_written::total          772160                       # Number of bytes written to this memory
system.mem_ctrls.num_reads::cpu.inst              418                       # Number of read requests responded to by this memory
system.mem_ctrls.num_reads::cpu.data            16174                       # Number of read requests responded to by this memory
system.mem_ctrls.num_reads::total               16592                       # Number of read requests responded to by this memory
system.mem_ctrls.num_writes::writebacks         12065                       # Number of write requests responded to by this memory
system.mem_ctrls.num_writes::total              12065                       # Number of write requests responded to by this memory
system.mem_ctrls.bw_read::cpu.inst             290072                       # Total read bandwidth from this memory (bytes/s)
system.mem_ctrls.bw_read::cpu.data           11223990                       # Total read bandwidth from this memory (bytes/s)
system.mem_ctrls.bw_read::total              11514062                       # Total read bandwidth from this memory (bytes/s)
system.mem_ctrls.bw_inst_read::cpu.inst        290072                       # Instruction read bandwidth from this memory (bytes/s)
system.mem_ctrls.bw_inst_read::total           290072                       # Instruction read bandwidth from this memory (bytes/s)
system.mem_ctrls.bw_write::writebacks         8372538                       # Write bandwidth from this memory (bytes/s)
system.mem_ctrls.bw_write::total              8372538                       # Write bandwidth from this memory (bytes/s)
system.mem_ctrls.bw_total::writebacks         8372538                       # Total bandwidth to/from this memory (bytes/s)
system.mem_ctrls.bw_total::cpu.inst            290072                       # Total bandwidth to/from this memory (bytes/s)
system.mem_ctrls.bw_total::cpu.data          11223990                       # Total bandwidth to/from this memory (bytes/s)
system.mem_ctrls.bw_total::total             19886600                       # Total bandwidth to/from this memory (bytes/s)
system.pwrStateResidencyTicks::UNDEFINED  92225317000                       # Cumulative time (in ticks) in various power states
system.cpu_voltage_domain.voltage                   1                       # Voltage in Volts
system.cpu_clk_domain.clock                       500                       # Clock period in ticks
system.cpu.dtb.walker.pwrStateResidencyTicks::UNDEFINED  92225317000                       # Cumulative time (in ticks) in various power states
system.cpu.dtb.rdAccesses                    20878308                       # TLB accesses on read requests
system.cpu.dtb.wrAccesses                     5816847                       # TLB accesses on write requests
system.cpu.dtb.rdMisses                           169                       # TLB misses on read requests
system.cpu.dtb.wrMisses                           107                       # TLB misses on write requests
system.cpu.apic_clk_domain.clock                 8000                       # Clock period in ticks
system.cpu.interrupts.pwrStateResidencyTicks::UNDEFINED  92225317000                       # Cumulative time (in ticks) in various power states
system.cpu.itb.walker.pwrStateResidencyTicks::UNDEFINED  92225317000                       # Cumulative time (in ticks) in various power states
system.cpu.itb.rdAccesses                           0                       # TLB accesses on read requests
system.cpu.itb.wrAccesses                    59919831                       # TLB accesses on write requests
system.cpu.itb.rdMisses                             0                       # TLB misses on read requests
system.cpu.itb.wrMisses                            42                       # TLB misses on write requests
system.cpu.workload.numSyscalls                    11                       # Number of system calls
system.cpu.pwrStateResidencyTicks::ON     92225317000                       # Cumulative time (in ticks) in various power states
system.cpu.numCycles                        184450634                       # number of cpu cycles simulated
system.cpu.numWorkItemsStarted                      0                       # number of work items this cpu started
system.cpu.numWorkItemsCompleted                    0                       # number of work items this cpu completed
system.cpu.committedInsts                    44592025                       # Number of instructions committed
system.cpu.committedOps                      73422276                       # Number of ops (including micro ops) committed
system.cpu.num_int_alu_accesses              72900333                       # Number of integer alu accesses
system.cpu.num_fp_alu_accesses                   1991                       # Number of float alu accesses
system.cpu.num_vec_alu_accesses                     0                       # Number of vector alu accesses
system.cpu.num_func_calls                      944988                       # number of times a function call or return occured
system.cpu.num_conditional_control_insts      4232892                       # number of instructions that are conditional controls
system.cpu.num_int_insts                     72900333                       # number of integer instructions
system.cpu.num_fp_insts                          1991                       # number of float instructions
system.cpu.num_vec_insts                            0                       # number of vector instructions
system.cpu.num_int_register_reads           163700123                       # number of times the integer registers were read
system.cpu.num_int_register_writes           63689963                       # number of times the integer registers were written
system.cpu.num_fp_register_reads                 3827                       # number of times the floating registers were read
system.cpu.num_fp_register_writes                1508                       # number of times the floating registers were written
system.cpu.num_vec_register_reads                   0                       # number of times the vector registers were read
system.cpu.num_vec_register_writes                  0                       # number of times the vector registers were written
system.cpu.num_cc_register_reads             27639252                       # number of times the CC registers were read
system.cpu.num_cc_register_writes            24934373                       # number of times the CC registers were written
system.cpu.num_mem_refs                      26695151                       # number of memory refs
system.cpu.num_load_insts                    20878305                       # Number of load instructions
system.cpu.num_store_insts                    5816846                       # Number of store instructions
system.cpu.num_idle_cycles                          0                       # Number of idle cycles
system.cpu.num_busy_cycles                  184450634                       # Number of busy cycles
system.cpu.not_idle_fraction                        1                       # Percentage of non-idle cycles
system.cpu.idle_fraction                            0                       # Percentage of idle cycles
system.cpu.Branches                           5575281                       # Number of branches fetched
system.cpu.op_class::No_OpClass                175849      0.24%      0.24% # Class of executed instruction
system.cpu.op_class::IntAlu                  45547287     62.03%     62.27% # Class of executed instruction
system.cpu.op_class::IntMult                        4      0.00%     62.27% # Class of executed instruction
system.cpu.op_class::IntDiv                   1003001      1.37%     63.64% # Class of executed instruction
system.cpu.op_class::FloatAdd                      10      0.00%     63.64% # Class of executed instruction
system.cpu.op_class::FloatCmp                       0      0.00%     63.64% # Class of executed instruction
system.cpu.op_class::FloatCvt                       0      0.00%     63.64% # Class of executed instruction
system.cpu.op_class::FloatMult                      0      0.00%     63.64% # Class of executed instruction
system.cpu.op_class::FloatMultAcc                   0      0.00%     63.64% # Class of executed instruction
system.cpu.op_class::FloatDiv                       0      0.00%     63.64% # Class of executed instruction
system.cpu.op_class::FloatMisc                      0      0.00%     63.64% # Class of executed instruction
system.cpu.op_class::FloatSqrt                      0      0.00%     63.64% # Class of executed instruction
system.cpu.op_class::SimdAdd                      374      0.00%     63.64% # Class of executed instruction
system.cpu.op_class::SimdAddAcc                     0      0.00%     63.64% # Class of executed instruction
system.cpu.op_class::SimdAlu                       76      0.00%     63.64% # Class of executed instruction
system.cpu.op_class::SimdCmp                        0      0.00%     63.64% # Class of executed instruction
system.cpu.op_class::SimdCvt                      116      0.00%     63.64% # Class of executed instruction
system.cpu.op_class::SimdMisc                     222      0.00%     63.64% # Class of executed instruction
system.cpu.op_class::SimdMult                       0      0.00%     63.64% # Class of executed instruction
system.cpu.op_class::SimdMultAcc                    0      0.00%     63.64% # Class of executed instruction
system.cpu.op_class::SimdShift                    186      0.00%     63.64% # Class of executed instruction
system.cpu.op_class::SimdShiftAcc                   0      0.00%     63.64% # Class of executed instruction
system.cpu.op_class::SimdSqrt                       0      0.00%     63.64% # Class of executed instruction
system.cpu.op_class::SimdFloatAdd                   0      0.00%     63.64% # Class of executed instruction
system.cpu.op_class::SimdFloatAlu                   0      0.00%     63.64% # Class of executed instruction
system.cpu.op_class::SimdFloatCmp                   0      0.00%     63.64% # Class of executed instruction
system.cpu.op_class::SimdFloatCvt                   0      0.00%     63.64% # Class of executed instruction
system.cpu.op_class::SimdFloatDiv                   0      0.00%     63.64% # Class of executed instruction
system.cpu.op_class::SimdFloatMisc                  0      0.00%     63.64% # Class of executed instruction
system.cpu.op_class::SimdFloatMult                  0      0.00%     63.64% # Class of executed instruction
system.cpu.op_class::SimdFloatMultAcc               0      0.00%     63.64% # Class of executed instruction
system.cpu.op_class::SimdFloatSqrt                  0      0.00%     63.64% # Class of executed instruction
system.cpu.op_class::MemRead                 20878237     28.44%     92.08% # Class of executed instruction
system.cpu.op_class::MemWrite                 5816419      7.92%    100.00% # Class of executed instruction
system.cpu.op_class::FloatMemRead                  68      0.00%    100.00% # Class of executed instruction
system.cpu.op_class::FloatMemWrite                427      0.00%    100.00% # Class of executed instruction
system.cpu.op_class::IprAccess                      0      0.00%    100.00% # Class of executed instruction
system.cpu.op_class::InstPrefetch                   0      0.00%    100.00% # Class of executed instruction
system.cpu.op_class::total                   73422276                       # Class of executed instruction
system.cpu.dcache.tags.pwrStateResidencyTicks::UNDEFINED  92225317000                       # Cumulative time (in ticks) in various power states
system.cpu.dcache.tags.tagsinuse           510.044119                       # Cycle average of tags in use
system.cpu.dcache.tags.total_refs            26695155                       # Total number of references to valid blocks.
system.cpu.dcache.tags.sampled_refs             45444                       # Sample count of references to valid blocks.
system.cpu.dcache.tags.avg_refs            587.429694                       # Average number of references to valid blocks.
system.cpu.dcache.tags.warmup_cycle            759000                       # Cycle when the warmup percentage was hit.
system.cpu.dcache.tags.occ_blocks::cpu.data   510.044119                       # Average occupied blocks per requestor
system.cpu.dcache.tags.occ_percent::cpu.data     0.996180                       # Average percentage of cache occupancy
system.cpu.dcache.tags.occ_percent::total     0.996180                       # Average percentage of cache occupancy
system.cpu.dcache.tags.occ_task_id_blocks::1024          512                       # Occupied blocks per task id
system.cpu.dcache.tags.age_task_id_blocks_1024::0            7                       # Occupied blocks per task id
system.cpu.dcache.tags.age_task_id_blocks_1024::1           38                       # Occupied blocks per task id
system.cpu.dcache.tags.age_task_id_blocks_1024::2           33                       # Occupied blocks per task id
system.cpu.dcache.tags.age_task_id_blocks_1024::3          432                       # Occupied blocks per task id
system.cpu.dcache.tags.age_task_id_blocks_1024::4            2                       # Occupied blocks per task id
system.cpu.dcache.tags.occ_task_id_percent::1024            1                       # Percentage of cache occupancy per task id
system.cpu.dcache.tags.tag_accesses          53435754                       # Number of tag accesses
system.cpu.dcache.tags.data_accesses         53435754                       # Number of data accesses
system.cpu.dcache.pwrStateResidencyTicks::UNDEFINED  92225317000                       # Cumulative time (in ticks) in various power states
system.cpu.dcache.ReadReq_hits::cpu.data     20839564                       # number of ReadReq hits
system.cpu.dcache.ReadReq_hits::total        20839564                       # number of ReadReq hits
system.cpu.dcache.WriteReq_hits::cpu.data      5803598                       # number of WriteReq hits
system.cpu.dcache.WriteReq_hits::total        5803598                       # number of WriteReq hits
system.cpu.dcache.demand_hits::cpu.data      26643162                       # number of demand (read+write) hits
system.cpu.dcache.demand_hits::total         26643162                       # number of demand (read+write) hits
system.cpu.dcache.overall_hits::cpu.data     26643162                       # number of overall hits
system.cpu.dcache.overall_hits::total        26643162                       # number of overall hits
system.cpu.dcache.ReadReq_misses::cpu.data        38744                       # number of ReadReq misses
system.cpu.dcache.ReadReq_misses::total         38744                       # number of ReadReq misses
system.cpu.dcache.WriteReq_misses::cpu.data        13249                       # number of WriteReq misses
system.cpu.dcache.WriteReq_misses::total        13249                       # number of WriteReq misses
system.cpu.dcache.demand_misses::cpu.data        51993                       # number of demand (read+write) misses
system.cpu.dcache.demand_misses::total          51993                       # number of demand (read+write) misses
system.cpu.dcache.overall_misses::cpu.data        51993                       # number of overall misses
system.cpu.dcache.overall_misses::total         51993                       # number of overall misses
system.cpu.dcache.ReadReq_miss_latency::cpu.data   4377741000                       # number of ReadReq miss cycles
system.cpu.dcache.ReadReq_miss_latency::total   4377741000                       # number of ReadReq miss cycles
system.cpu.dcache.WriteReq_miss_latency::cpu.data   1187090000                       # number of WriteReq miss cycles
system.cpu.dcache.WriteReq_miss_latency::total   1187090000                       # number of WriteReq miss cycles
system.cpu.dcache.demand_miss_latency::cpu.data   5564831000                       # number of demand (read+write) miss cycles
system.cpu.dcache.demand_miss_latency::total   5564831000                       # number of demand (read+write) miss cycles
system.cpu.dcache.overall_miss_latency::cpu.data   5564831000                       # number of overall miss cycles
system.cpu.dcache.overall_miss_latency::total   5564831000                       # number of overall miss cycles
system.cpu.dcache.ReadReq_accesses::cpu.data     20878308                       # number of ReadReq accesses(hits+misses)
system.cpu.dcache.ReadReq_accesses::total     20878308                       # number of ReadReq accesses(hits+misses)
system.cpu.dcache.WriteReq_accesses::cpu.data      5816847                       # number of WriteReq accesses(hits+misses)
system.cpu.dcache.WriteReq_accesses::total      5816847                       # number of WriteReq accesses(hits+misses)
system.cpu.dcache.demand_accesses::cpu.data     26695155                       # number of demand (read+write) accesses
system.cpu.dcache.demand_accesses::total     26695155                       # number of demand (read+write) accesses
system.cpu.dcache.overall_accesses::cpu.data     26695155                       # number of overall (read+write) accesses
system.cpu.dcache.overall_accesses::total     26695155                       # number of overall (read+write) accesses
system.cpu.dcache.ReadReq_miss_rate::cpu.data     0.001856                       # miss rate for ReadReq accesses
system.cpu.dcache.ReadReq_miss_rate::total     0.001856                       # miss rate for ReadReq accesses
system.cpu.dcache.WriteReq_miss_rate::cpu.data     0.002278                       # miss rate for WriteReq accesses
system.cpu.dcache.WriteReq_miss_rate::total     0.002278                       # miss rate for WriteReq accesses
system.cpu.dcache.demand_miss_rate::cpu.data     0.001948                       # miss rate for demand accesses
system.cpu.dcache.demand_miss_rate::total     0.001948                       # miss rate for demand accesses
system.cpu.dcache.overall_miss_rate::cpu.data     0.001948                       # miss rate for overall accesses
system.cpu.dcache.overall_miss_rate::total     0.001948                       # miss rate for overall accesses
system.cpu.dcache.ReadReq_avg_miss_latency::cpu.data 112991.456742                       # average ReadReq miss latency
system.cpu.dcache.ReadReq_avg_miss_latency::total 112991.456742                       # average ReadReq miss latency
system.cpu.dcache.WriteReq_avg_miss_latency::cpu.data 89598.460261                       # average WriteReq miss latency
system.cpu.dcache.WriteReq_avg_miss_latency::total 89598.460261                       # average WriteReq miss latency
system.cpu.dcache.demand_avg_miss_latency::cpu.data 107030.388706                       # average overall miss latency
system.cpu.dcache.demand_avg_miss_latency::total 107030.388706                       # average overall miss latency
system.cpu.dcache.overall_avg_miss_latency::cpu.data 107030.388706                       # average overall miss latency
system.cpu.dcache.overall_avg_miss_latency::total 107030.388706                       # average overall miss latency
system.cpu.dcache.blocked_cycles::no_mshrs            0                       # number of cycles access was blocked
system.cpu.dcache.blocked_cycles::no_targets            0                       # number of cycles access was blocked
system.cpu.dcache.blocked::no_mshrs                 0                       # number of cycles access was blocked
system.cpu.dcache.blocked::no_targets               0                       # number of cycles access was blocked
system.cpu.dcache.avg_blocked_cycles::no_mshrs          nan                       # average number of cycles each access was blocked
system.cpu.dcache.avg_blocked_cycles::no_targets          nan                       # average number of cycles each access was blocked
system.cpu.dcache.writebacks::writebacks        43433                       # number of writebacks
system.cpu.dcache.writebacks::total             43433                       # number of writebacks
system.cpu.dcache.ReadReq_mshr_misses::cpu.data        38744                       # number of ReadReq MSHR misses
system.cpu.dcache.ReadReq_mshr_misses::total        38744                       # number of ReadReq MSHR misses
system.cpu.dcache.WriteReq_mshr_misses::cpu.data        13249                       # number of WriteReq MSHR misses
system.cpu.dcache.WriteReq_mshr_misses::total        13249                       # number of WriteReq MSHR misses
system.cpu.dcache.demand_mshr_misses::cpu.data        51993                       # number of demand (read+write) MSHR misses
system.cpu.dcache.demand_mshr_misses::total        51993                       # number of demand (read+write) MSHR misses
system.cpu.dcache.overall_mshr_misses::cpu.data        51993                       # number of overall MSHR misses
system.cpu.dcache.overall_mshr_misses::total        51993                       # number of overall MSHR misses
system.cpu.dcache.ReadReq_mshr_miss_latency::cpu.data   4338997000                       # number of ReadReq MSHR miss cycles
system.cpu.dcache.ReadReq_mshr_miss_latency::total   4338997000                       # number of ReadReq MSHR miss cycles
system.cpu.dcache.WriteReq_mshr_miss_latency::cpu.data   1173841000                       # number of WriteReq MSHR miss cycles
system.cpu.dcache.WriteReq_mshr_miss_latency::total   1173841000                       # number of WriteReq MSHR miss cycles
system.cpu.dcache.demand_mshr_miss_latency::cpu.data   5512838000                       # number of demand (read+write) MSHR miss cycles
system.cpu.dcache.demand_mshr_miss_latency::total   5512838000                       # number of demand (read+write) MSHR miss cycles
system.cpu.dcache.overall_mshr_miss_latency::cpu.data   5512838000                       # number of overall MSHR miss cycles
system.cpu.dcache.overall_mshr_miss_latency::total   5512838000                       # number of overall MSHR miss cycles
system.cpu.dcache.ReadReq_mshr_miss_rate::cpu.data     0.001856                       # mshr miss rate for ReadReq accesses
system.cpu.dcache.ReadReq_mshr_miss_rate::total     0.001856                       # mshr miss rate for ReadReq accesses
system.cpu.dcache.WriteReq_mshr_miss_rate::cpu.data     0.002278                       # mshr miss rate for WriteReq accesses
system.cpu.dcache.WriteReq_mshr_miss_rate::total     0.002278                       # mshr miss rate for WriteReq accesses
system.cpu.dcache.demand_mshr_miss_rate::cpu.data     0.001948                       # mshr miss rate for demand accesses
system.cpu.dcache.demand_mshr_miss_rate::total     0.001948                       # mshr miss rate for demand accesses
system.cpu.dcache.overall_mshr_miss_rate::cpu.data     0.001948                       # mshr miss rate for overall accesses
system.cpu.dcache.overall_mshr_miss_rate::total     0.001948                       # mshr miss rate for overall accesses
system.cpu.dcache.ReadReq_avg_mshr_miss_latency::cpu.data 111991.456742                       # average ReadReq mshr miss latency
system.cpu.dcache.ReadReq_avg_mshr_miss_latency::total 111991.456742                       # average ReadReq mshr miss latency
system.cpu.dcache.WriteReq_avg_mshr_miss_latency::cpu.data 88598.460261                       # average WriteReq mshr miss latency
system.cpu.dcache.WriteReq_avg_mshr_miss_latency::total 88598.460261                       # average WriteReq mshr miss latency
system.cpu.dcache.demand_avg_mshr_miss_latency::cpu.data 106030.388706                       # average overall mshr miss latency
system.cpu.dcache.demand_avg_mshr_miss_latency::total 106030.388706                       # average overall mshr miss latency
system.cpu.dcache.overall_avg_mshr_miss_latency::cpu.data 106030.388706                       # average overall mshr miss latency
system.cpu.dcache.overall_avg_mshr_miss_latency::total 106030.388706                       # average overall mshr miss latency
system.cpu.dcache.replacements                  44932                       # number of replacements
system.cpu.dtb_walker_cache.tags.pwrStateResidencyTicks::UNDEFINED  92225317000                       # Cumulative time (in ticks) in various power states
system.cpu.dtb_walker_cache.tags.tagsinuse            0                       # Cycle average of tags in use
system.cpu.dtb_walker_cache.tags.total_refs            0                       # Total number of references to valid blocks.
system.cpu.dtb_walker_cache.tags.sampled_refs            0                       # Sample count of references to valid blocks.
system.cpu.dtb_walker_cache.tags.avg_refs          nan                       # Average number of references to valid blocks.
system.cpu.dtb_walker_cache.tags.warmup_cycle            0                       # Cycle when the warmup percentage was hit.
system.cpu.dtb_walker_cache.tags.tag_accesses            0                       # Number of tag accesses
system.cpu.dtb_walker_cache.tags.data_accesses            0                       # Number of data accesses
system.cpu.dtb_walker_cache.pwrStateResidencyTicks::UNDEFINED  92225317000                       # Cumulative time (in ticks) in various power states
system.cpu.dtb_walker_cache.blocked_cycles::no_mshrs            0                       # number of cycles access was blocked
system.cpu.dtb_walker_cache.blocked_cycles::no_targets            0                       # number of cycles access was blocked
system.cpu.dtb_walker_cache.blocked::no_mshrs            0                       # number of cycles access was blocked
system.cpu.dtb_walker_cache.blocked::no_targets            0                       # number of cycles access was blocked
system.cpu.dtb_walker_cache.avg_blocked_cycles::no_mshrs          nan                       # average number of cycles each access was blocked
system.cpu.dtb_walker_cache.avg_blocked_cycles::no_targets          nan                       # average number of cycles each access was blocked
system.cpu.dtb_walker_cache.replacements            0                       # number of replacements
system.cpu.icache.tags.pwrStateResidencyTicks::UNDEFINED  92225317000                       # Cumulative time (in ticks) in various power states
system.cpu.icache.tags.tagsinuse           282.287938                       # Cycle average of tags in use
system.cpu.icache.tags.total_refs            59919831                       # Total number of references to valid blocks.
system.cpu.icache.tags.sampled_refs               420                       # Sample count of references to valid blocks.
system.cpu.icache.tags.avg_refs          142666.264286                       # Average number of references to valid blocks.
system.cpu.icache.tags.warmup_cycle            439000                       # Cycle when the warmup percentage was hit.
system.cpu.icache.tags.occ_blocks::cpu.inst   282.287938                       # Average occupied blocks per requestor
system.cpu.icache.tags.occ_percent::cpu.inst     0.551344                       # Average percentage of cache occupancy
system.cpu.icache.tags.occ_percent::total     0.551344                       # Average percentage of cache occupancy
system.cpu.icache.tags.occ_task_id_blocks::1024          347                       # Occupied blocks per task id
system.cpu.icache.tags.age_task_id_blocks_1024::0           27                       # Occupied blocks per task id
system.cpu.icache.tags.age_task_id_blocks_1024::1           73                       # Occupied blocks per task id
system.cpu.icache.tags.age_task_id_blocks_1024::4          247                       # Occupied blocks per task id
system.cpu.icache.tags.occ_task_id_percent::1024     0.677734                       # Percentage of cache occupancy per task id
system.cpu.icache.tags.tag_accesses         119840082                       # Number of tag accesses
system.cpu.icache.tags.data_accesses        119840082                       # Number of data accesses
system.cpu.icache.pwrStateResidencyTicks::UNDEFINED  92225317000                       # Cumulative time (in ticks) in various power states
system.cpu.icache.ReadReq_hits::cpu.inst     59919411                       # number of ReadReq hits
system.cpu.icache.ReadReq_hits::total        59919411                       # number of ReadReq hits
system.cpu.icache.demand_hits::cpu.inst      59919411                       # number of demand (read+write) hits
system.cpu.icache.demand_hits::total         59919411                       # number of demand (read+write) hits
system.cpu.icache.overall_hits::cpu.inst     59919411                       # number of overall hits
system.cpu.icache.overall_hits::total        59919411                       # number of overall hits
system.cpu.icache.ReadReq_misses::cpu.inst          420                       # number of ReadReq misses
system.cpu.icache.ReadReq_misses::total           420                       # number of ReadReq misses
system.cpu.icache.demand_misses::cpu.inst          420                       # number of demand (read+write) misses
system.cpu.icache.demand_misses::total            420                       # number of demand (read+write) misses
system.cpu.icache.overall_misses::cpu.inst          420                       # number of overall misses
system.cpu.icache.overall_misses::total           420                       # number of overall misses
system.cpu.icache.ReadReq_miss_latency::cpu.inst     97917000                       # number of ReadReq miss cycles
system.cpu.icache.ReadReq_miss_latency::total     97917000                       # number of ReadReq miss cycles
system.cpu.icache.demand_miss_latency::cpu.inst     97917000                       # number of demand (read+write) miss cycles
system.cpu.icache.demand_miss_latency::total     97917000                       # number of demand (read+write) miss cycles
system.cpu.icache.overall_miss_latency::cpu.inst     97917000                       # number of overall miss cycles
system.cpu.icache.overall_miss_latency::total     97917000                       # number of overall miss cycles
system.cpu.icache.ReadReq_accesses::cpu.inst     59919831                       # number of ReadReq accesses(hits+misses)
system.cpu.icache.ReadReq_accesses::total     59919831                       # number of ReadReq accesses(hits+misses)
system.cpu.icache.demand_accesses::cpu.inst     59919831                       # number of demand (read+write) accesses
system.cpu.icache.demand_accesses::total     59919831                       # number of demand (read+write) accesses
system.cpu.icache.overall_accesses::cpu.inst     59919831                       # number of overall (read+write) accesses
system.cpu.icache.overall_accesses::total     59919831                       # number of overall (read+write) accesses
system.cpu.icache.ReadReq_miss_rate::cpu.inst     0.000007                       # miss rate for ReadReq accesses
system.cpu.icache.ReadReq_miss_rate::total     0.000007                       # miss rate for ReadReq accesses
system.cpu.icache.demand_miss_rate::cpu.inst     0.000007                       # miss rate for demand accesses
system.cpu.icache.demand_miss_rate::total     0.000007                       # miss rate for demand accesses
system.cpu.icache.overall_miss_rate::cpu.inst     0.000007                       # miss rate for overall accesses
system.cpu.icache.overall_miss_rate::total     0.000007                       # miss rate for overall accesses
system.cpu.icache.ReadReq_avg_miss_latency::cpu.inst 233135.714286                       # average ReadReq miss latency
system.cpu.icache.ReadReq_avg_miss_latency::total 233135.714286                       # average ReadReq miss latency
system.cpu.icache.demand_avg_miss_latency::cpu.inst 233135.714286                       # average overall miss latency
system.cpu.icache.demand_avg_miss_latency::total 233135.714286                       # average overall miss latency
system.cpu.icache.overall_avg_miss_latency::cpu.inst 233135.714286                       # average overall miss latency
system.cpu.icache.overall_avg_miss_latency::total 233135.714286                       # average overall miss latency
system.cpu.icache.blocked_cycles::no_mshrs            0                       # number of cycles access was blocked
system.cpu.icache.blocked_cycles::no_targets            0                       # number of cycles access was blocked
system.cpu.icache.blocked::no_mshrs                 0                       # number of cycles access was blocked
system.cpu.icache.blocked::no_targets               0                       # number of cycles access was blocked
system.cpu.icache.avg_blocked_cycles::no_mshrs          nan                       # average number of cycles each access was blocked
system.cpu.icache.avg_blocked_cycles::no_targets          nan                       # average number of cycles each access was blocked
system.cpu.icache.writebacks::writebacks           73                       # number of writebacks
system.cpu.icache.writebacks::total                73                       # number of writebacks
system.cpu.icache.ReadReq_mshr_misses::cpu.inst          420                       # number of ReadReq MSHR misses
system.cpu.icache.ReadReq_mshr_misses::total          420                       # number of ReadReq MSHR misses
system.cpu.icache.demand_mshr_misses::cpu.inst          420                       # number of demand (read+write) MSHR misses
system.cpu.icache.demand_mshr_misses::total          420                       # number of demand (read+write) MSHR misses
system.cpu.icache.overall_mshr_misses::cpu.inst          420                       # number of overall MSHR misses
system.cpu.icache.overall_mshr_misses::total          420                       # number of overall MSHR misses
system.cpu.icache.ReadReq_mshr_miss_latency::cpu.inst     97497000                       # number of ReadReq MSHR miss cycles
system.cpu.icache.ReadReq_mshr_miss_latency::total     97497000                       # number of ReadReq MSHR miss cycles
system.cpu.icache.demand_mshr_miss_latency::cpu.inst     97497000                       # number of demand (read+write) MSHR miss cycles
system.cpu.icache.demand_mshr_miss_latency::total     97497000                       # number of demand (read+write) MSHR miss cycles
system.cpu.icache.overall_mshr_miss_latency::cpu.inst     97497000                       # number of overall MSHR miss cycles
system.cpu.icache.overall_mshr_miss_latency::total     97497000                       # number of overall MSHR miss cycles
system.cpu.icache.ReadReq_mshr_miss_rate::cpu.inst     0.000007                       # mshr miss rate for ReadReq accesses
system.cpu.icache.ReadReq_mshr_miss_rate::total     0.000007                       # mshr miss rate for ReadReq accesses
system.cpu.icache.demand_mshr_miss_rate::cpu.inst     0.000007                       # mshr miss rate for demand accesses
system.cpu.icache.demand_mshr_miss_rate::total     0.000007                       # mshr miss rate for demand accesses
system.cpu.icache.overall_mshr_miss_rate::cpu.inst     0.000007                       # mshr miss rate for overall accesses
system.cpu.icache.overall_mshr_miss_rate::total     0.000007                       # mshr miss rate for overall accesses
system.cpu.icache.ReadReq_avg_mshr_miss_latency::cpu.inst 232135.714286                       # average ReadReq mshr miss latency
system.cpu.icache.ReadReq_avg_mshr_miss_latency::total 232135.714286                       # average ReadReq mshr miss latency
system.cpu.icache.demand_avg_mshr_miss_latency::cpu.inst 232135.714286                       # average overall mshr miss latency
system.cpu.icache.demand_avg_mshr_miss_latency::total 232135.714286                       # average overall mshr miss latency
system.cpu.icache.overall_avg_mshr_miss_latency::cpu.inst 232135.714286                       # average overall mshr miss latency
system.cpu.icache.overall_avg_mshr_miss_latency::total 232135.714286                       # average overall mshr miss latency
system.cpu.icache.replacements                     73                       # number of replacements
system.cpu.itb_walker_cache.tags.pwrStateResidencyTicks::UNDEFINED  92225317000                       # Cumulative time (in ticks) in various power states
system.cpu.itb_walker_cache.tags.tagsinuse            0                       # Cycle average of tags in use
system.cpu.itb_walker_cache.tags.total_refs            0                       # Total number of references to valid blocks.
system.cpu.itb_walker_cache.tags.sampled_refs            0                       # Sample count of references to valid blocks.
system.cpu.itb_walker_cache.tags.avg_refs          nan                       # Average number of references to valid blocks.
system.cpu.itb_walker_cache.tags.warmup_cycle            0                       # Cycle when the warmup percentage was hit.
system.cpu.itb_walker_cache.tags.tag_accesses            0                       # Number of tag accesses
system.cpu.itb_walker_cache.tags.data_accesses            0                       # Number of data accesses
system.cpu.itb_walker_cache.pwrStateResidencyTicks::UNDEFINED  92225317000                       # Cumulative time (in ticks) in various power states
system.cpu.itb_walker_cache.blocked_cycles::no_mshrs            0                       # number of cycles access was blocked
system.cpu.itb_walker_cache.blocked_cycles::no_targets            0                       # number of cycles access was blocked
system.cpu.itb_walker_cache.blocked::no_mshrs            0                       # number of cycles access was blocked
system.cpu.itb_walker_cache.blocked::no_targets            0                       # number of cycles access was blocked
system.cpu.itb_walker_cache.avg_blocked_cycles::no_mshrs          nan                       # average number of cycles each access was blocked
system.cpu.itb_walker_cache.avg_blocked_cycles::no_targets          nan                       # average number of cycles each access was blocked
system.cpu.itb_walker_cache.replacements            0                       # number of replacements
system.l2.tags.pwrStateResidencyTicks::UNDEFINED  92225317000                       # Cumulative time (in ticks) in various power states
system.l2.tags.tagsinuse                  2019.501867                       # Cycle average of tags in use
system.l2.tags.total_refs                       97418                       # Total number of references to valid blocks.
system.l2.tags.sampled_refs                     24295                       # Sample count of references to valid blocks.
system.l2.tags.avg_refs                      4.009796                       # Average number of references to valid blocks.
system.l2.tags.warmup_cycle                    428500                       # Cycle when the warmup percentage was hit.
system.l2.tags.occ_blocks::writebacks        1.426027                       # Average occupied blocks per requestor
system.l2.tags.occ_blocks::cpu.inst         11.170301                       # Average occupied blocks per requestor
system.l2.tags.occ_blocks::cpu.data       2006.905538                       # Average occupied blocks per requestor
system.l2.tags.occ_percent::writebacks       0.000696                       # Average percentage of cache occupancy
system.l2.tags.occ_percent::cpu.inst         0.005454                       # Average percentage of cache occupancy
system.l2.tags.occ_percent::cpu.data         0.979934                       # Average percentage of cache occupancy
system.l2.tags.occ_percent::total            0.986085                       # Average percentage of cache occupancy
system.l2.tags.occ_task_id_blocks::1024          2048                       # Occupied blocks per task id
system.l2.tags.age_task_id_blocks_1024::0           42                       # Occupied blocks per task id
system.l2.tags.age_task_id_blocks_1024::1          138                       # Occupied blocks per task id
system.l2.tags.age_task_id_blocks_1024::2           33                       # Occupied blocks per task id
system.l2.tags.age_task_id_blocks_1024::3           59                       # Occupied blocks per task id
system.l2.tags.age_task_id_blocks_1024::4         1776                       # Occupied blocks per task id
system.l2.tags.occ_task_id_percent::1024            1                       # Percentage of cache occupancy per task id
system.l2.tags.tag_accesses                    803639                       # Number of tag accesses
system.l2.tags.data_accesses                   803639                       # Number of data accesses
system.l2.pwrStateResidencyTicks::UNDEFINED  92225317000                       # Cumulative time (in ticks) in various power states
system.l2.WritebackDirty_hits::writebacks        43433                       # number of WritebackDirty hits
system.l2.WritebackDirty_hits::total            43433                       # number of WritebackDirty hits
system.l2.WritebackClean_hits::writebacks           73                       # number of WritebackClean hits
system.l2.WritebackClean_hits::total               73                       # number of WritebackClean hits
system.l2.UpgradeReq_hits::cpu.data              6549                       # number of UpgradeReq hits
system.l2.UpgradeReq_hits::total                 6549                       # number of UpgradeReq hits
system.l2.ReadExReq_hits::cpu.data                259                       # number of ReadExReq hits
system.l2.ReadExReq_hits::total                   259                       # number of ReadExReq hits
system.l2.ReadCleanReq_hits::cpu.inst               2                       # number of ReadCleanReq hits
system.l2.ReadCleanReq_hits::total                  2                       # number of ReadCleanReq hits
system.l2.ReadSharedReq_hits::cpu.data          21358                       # number of ReadSharedReq hits
system.l2.ReadSharedReq_hits::total             21358                       # number of ReadSharedReq hits
system.l2.demand_hits::cpu.inst                     2                       # number of demand (read+write) hits
system.l2.demand_hits::cpu.data                 21617                       # number of demand (read+write) hits
system.l2.demand_hits::total                    21619                       # number of demand (read+write) hits
system.l2.overall_hits::cpu.inst                    2                       # number of overall hits
system.l2.overall_hits::cpu.data                21617                       # number of overall hits
system.l2.overall_hits::total                   21619                       # number of overall hits
system.l2.ReadExReq_misses::cpu.data             6441                       # number of ReadExReq misses
system.l2.ReadExReq_misses::total                6441                       # number of ReadExReq misses
system.l2.ReadCleanReq_misses::cpu.inst           418                       # number of ReadCleanReq misses
system.l2.ReadCleanReq_misses::total              418                       # number of ReadCleanReq misses
system.l2.ReadSharedReq_misses::cpu.data        17386                       # number of ReadSharedReq misses
system.l2.ReadSharedReq_misses::total           17386                       # number of ReadSharedReq misses
system.l2.demand_misses::cpu.inst                 418                       # number of demand (read+write) misses
system.l2.demand_misses::cpu.data               23827                       # number of demand (read+write) misses
system.l2.demand_misses::total                  24245                       # number of demand (read+write) misses
system.l2.overall_misses::cpu.inst                418                       # number of overall misses
system.l2.overall_misses::cpu.data              23827                       # number of overall misses
system.l2.overall_misses::total                 24245                       # number of overall misses
system.l2.ReadExReq_miss_latency::cpu.data   1082481500                       # number of ReadExReq miss cycles
system.l2.ReadExReq_miss_latency::total    1082481500                       # number of ReadExReq miss cycles
system.l2.ReadCleanReq_miss_latency::cpu.inst     96844000                       # number of ReadCleanReq miss cycles
system.l2.ReadCleanReq_miss_latency::total     96844000                       # number of ReadCleanReq miss cycles
system.l2.ReadSharedReq_miss_latency::cpu.data   4056621000                       # number of ReadSharedReq miss cycles
system.l2.ReadSharedReq_miss_latency::total   4056621000                       # number of ReadSharedReq miss cycles
system.l2.demand_miss_latency::cpu.inst      96844000                       # number of demand (read+write) miss cycles
system.l2.demand_miss_latency::cpu.data    5139102500                       # number of demand (read+write) miss cycles
system.l2.demand_miss_latency::total       5235946500                       # number of demand (read+write) miss cycles
system.l2.overall_miss_latency::cpu.inst     96844000                       # number of overall miss cycles
system.l2.overall_miss_latency::cpu.data   5139102500                       # number of overall miss cycles
system.l2.overall_miss_latency::total      5235946500                       # number of overall miss cycles
system.l2.WritebackDirty_accesses::writebacks        43433                       # number of WritebackDirty accesses(hits+misses)
system.l2.WritebackDirty_accesses::total        43433                       # number of WritebackDirty accesses(hits+misses)
system.l2.WritebackClean_accesses::writebacks           73                       # number of WritebackClean accesses(hits+misses)
system.l2.WritebackClean_accesses::total           73                       # number of WritebackClean accesses(hits+misses)
system.l2.UpgradeReq_accesses::cpu.data          6549                       # number of UpgradeReq accesses(hits+misses)
system.l2.UpgradeReq_accesses::total             6549                       # number of UpgradeReq accesses(hits+misses)
system.l2.ReadExReq_accesses::cpu.data           6700                       # number of ReadExReq accesses(hits+misses)
system.l2.ReadExReq_accesses::total              6700                       # number of ReadExReq accesses(hits+misses)
system.l2.ReadCleanReq_accesses::cpu.inst          420                       # number of ReadCleanReq accesses(hits+misses)
system.l2.ReadCleanReq_accesses::total            420                       # number of ReadCleanReq accesses(hits+misses)
system.l2.ReadSharedReq_accesses::cpu.data        38744                       # number of ReadSharedReq accesses(hits+misses)
system.l2.ReadSharedReq_accesses::total         38744                       # number of ReadSharedReq accesses(hits+misses)
system.l2.demand_accesses::cpu.inst               420                       # number of demand (read+write) accesses
system.l2.demand_accesses::cpu.data             45444                       # number of demand (read+write) accesses
system.l2.demand_accesses::total                45864                       # number of demand (read+write) accesses
system.l2.overall_accesses::cpu.inst              420                       # number of overall (read+write) accesses
system.l2.overall_accesses::cpu.data            45444                       # number of overall (read+write) accesses
system.l2.overall_accesses::total               45864                       # number of overall (read+write) accesses
system.l2.ReadExReq_miss_rate::cpu.data      0.961343                       # miss rate for ReadExReq accesses
system.l2.ReadExReq_miss_rate::total         0.961343                       # miss rate for ReadExReq accesses
system.l2.ReadCleanReq_miss_rate::cpu.inst     0.995238                       # miss rate for ReadCleanReq accesses
system.l2.ReadCleanReq_miss_rate::total      0.995238                       # miss rate for ReadCleanReq accesses
system.l2.ReadSharedReq_miss_rate::cpu.data     0.448740                       # miss rate for ReadSharedReq accesses
system.l2.ReadSharedReq_miss_rate::total     0.448740                       # miss rate for ReadSharedReq accesses
system.l2.demand_miss_rate::cpu.inst         0.995238                       # miss rate for demand accesses
system.l2.demand_miss_rate::cpu.data         0.524316                       # miss rate for demand accesses
system.l2.demand_miss_rate::total            0.528628                       # miss rate for demand accesses
system.l2.overall_miss_rate::cpu.inst        0.995238                       # miss rate for overall accesses
system.l2.overall_miss_rate::cpu.data        0.524316                       # miss rate for overall accesses
system.l2.overall_miss_rate::total           0.528628                       # miss rate for overall accesses
system.l2.ReadExReq_avg_miss_latency::cpu.data 168061.092998                       # average ReadExReq miss latency
system.l2.ReadExReq_avg_miss_latency::total 168061.092998                       # average ReadExReq miss latency
system.l2.ReadCleanReq_avg_miss_latency::cpu.inst 231684.210526                       # average ReadCleanReq miss latency
system.l2.ReadCleanReq_avg_miss_latency::total 231684.210526                       # average ReadCleanReq miss latency
system.l2.ReadSharedReq_avg_miss_latency::cpu.data 233326.872196                       # average ReadSharedReq miss latency
system.l2.ReadSharedReq_avg_miss_latency::total 233326.872196                       # average ReadSharedReq miss latency
system.l2.demand_avg_miss_latency::cpu.inst 231684.210526                       # average overall miss latency
system.l2.demand_avg_miss_latency::cpu.data 215683.992949                       # average overall miss latency
system.l2.demand_avg_miss_latency::total 215959.847391                       # average overall miss latency
system.l2.overall_avg_miss_latency::cpu.inst 231684.210526                       # average overall miss latency
system.l2.overall_avg_miss_latency::cpu.data 215683.992949                       # average overall miss latency
system.l2.overall_avg_miss_latency::total 215959.847391                       # average overall miss latency
system.l2.blocked_cycles::no_mshrs                  0                       # number of cycles access was blocked
system.l2.blocked_cycles::no_targets                0                       # number of cycles access was blocked
system.l2.blocked::no_mshrs                         0                       # number of cycles access was blocked
system.l2.blocked::no_targets                       0                       # number of cycles access was blocked
system.l2.avg_blocked_cycles::no_mshrs            nan                       # average number of cycles each access was blocked
system.l2.avg_blocked_cycles::no_targets          nan                       # average number of cycles each access was blocked
system.l2.writebacks::writebacks                21784                       # number of writebacks
system.l2.writebacks::total                     21784                       # number of writebacks
system.l2.ReadExReq_mshr_misses::cpu.data         6441                       # number of ReadExReq MSHR misses
system.l2.ReadExReq_mshr_misses::total           6441                       # number of ReadExReq MSHR misses
system.l2.ReadCleanReq_mshr_misses::cpu.inst          418                       # number of ReadCleanReq MSHR misses
system.l2.ReadCleanReq_mshr_misses::total          418                       # number of ReadCleanReq MSHR misses
system.l2.ReadSharedReq_mshr_misses::cpu.data        17386                       # number of ReadSharedReq MSHR misses
system.l2.ReadSharedReq_mshr_misses::total        17386                       # number of ReadSharedReq MSHR misses
system.l2.demand_mshr_misses::cpu.inst            418                       # number of demand (read+write) MSHR misses
system.l2.demand_mshr_misses::cpu.data          23827                       # number of demand (read+write) MSHR misses
system.l2.demand_mshr_misses::total             24245                       # number of demand (read+write) MSHR misses
system.l2.overall_mshr_misses::cpu.inst           418                       # number of overall MSHR misses
system.l2.overall_mshr_misses::cpu.data         23827                       # number of overall MSHR misses
system.l2.overall_mshr_misses::total            24245                       # number of overall MSHR misses
system.l2.ReadExReq_mshr_miss_latency::cpu.data   1018071500                       # number of ReadExReq MSHR miss cycles
system.l2.ReadExReq_mshr_miss_latency::total   1018071500                       # number of ReadExReq MSHR miss cycles
system.l2.ReadCleanReq_mshr_miss_latency::cpu.inst     92664000                       # number of ReadCleanReq MSHR miss cycles
system.l2.ReadCleanReq_mshr_miss_latency::total     92664000                       # number of ReadCleanReq MSHR miss cycles
system.l2.ReadSharedReq_mshr_miss_latency::cpu.data   3882761000                       # number of ReadSharedReq MSHR miss cycles
system.l2.ReadSharedReq_mshr_miss_latency::total   3882761000                       # number of ReadSharedReq MSHR miss cycles
system.l2.demand_mshr_miss_latency::cpu.inst     92664000                       # number of demand (read+write) MSHR miss cycles
system.l2.demand_mshr_miss_latency::cpu.data   4900832500                       # number of demand (read+write) MSHR miss cycles
system.l2.demand_mshr_miss_latency::total   4993496500                       # number of demand (read+write) MSHR miss cycles
system.l2.overall_mshr_miss_latency::cpu.inst     92664000                       # number of overall MSHR miss cycles
system.l2.overall_mshr_miss_latency::cpu.data   4900832500                       # number of overall MSHR miss cycles
system.l2.overall_mshr_miss_latency::total   4993496500                       # number of overall MSHR miss cycles
system.l2.ReadExReq_mshr_miss_rate::cpu.data     0.961343                       # mshr miss rate for ReadExReq accesses
system.l2.ReadExReq_mshr_miss_rate::total     0.961343                       # mshr miss rate for ReadExReq accesses
system.l2.ReadCleanReq_mshr_miss_rate::cpu.inst     0.995238                       # mshr miss rate for ReadCleanReq accesses
system.l2.ReadCleanReq_mshr_miss_rate::total     0.995238                       # mshr miss rate for ReadCleanReq accesses
system.l2.ReadSharedReq_mshr_miss_rate::cpu.data     0.448740                       # mshr miss rate for ReadSharedReq accesses
system.l2.ReadSharedReq_mshr_miss_rate::total     0.448740                       # mshr miss rate for ReadSharedReq accesses
system.l2.demand_mshr_miss_rate::cpu.inst     0.995238                       # mshr miss rate for demand accesses
system.l2.demand_mshr_miss_rate::cpu.data     0.524316                       # mshr miss rate for demand accesses
system.l2.demand_mshr_miss_rate::total       0.528628                       # mshr miss rate for demand accesses
system.l2.overall_mshr_miss_rate::cpu.inst     0.995238                       # mshr miss rate for overall accesses
system.l2.overall_mshr_miss_rate::cpu.data     0.524316                       # mshr miss rate for overall accesses
system.l2.overall_mshr_miss_rate::total      0.528628                       # mshr miss rate for overall accesses
system.l2.ReadExReq_avg_mshr_miss_latency::cpu.data 158061.092998                       # average ReadExReq mshr miss latency
system.l2.ReadExReq_avg_mshr_miss_latency::total 158061.092998                       # average ReadExReq mshr miss latency
system.l2.ReadCleanReq_avg_mshr_miss_latency::cpu.inst 221684.210526                       # average ReadCleanReq mshr miss latency
system.l2.ReadCleanReq_avg_mshr_miss_latency::total 221684.210526                       # average ReadCleanReq mshr miss latency
system.l2.ReadSharedReq_avg_mshr_miss_latency::cpu.data 223326.872196                       # average ReadSharedReq mshr miss latency
system.l2.ReadSharedReq_avg_mshr_miss_latency::total 223326.872196                       # average ReadSharedReq mshr miss latency
system.l2.demand_avg_mshr_miss_latency::cpu.inst 221684.210526                       # average overall mshr miss latency
system.l2.demand_avg_mshr_miss_latency::cpu.data 205683.992949                       # average overall mshr miss latency
system.l2.demand_avg_mshr_miss_latency::total 205959.847391                       # average overall mshr miss latency
system.l2.overall_avg_mshr_miss_latency::cpu.inst 221684.210526                       # average overall mshr miss latency
system.l2.overall_avg_mshr_miss_latency::cpu.data 205683.992949                       # average overall mshr miss latency
system.l2.overall_avg_mshr_miss_latency::total 205959.847391                       # average overall mshr miss latency
system.l2.replacements                          22247                       # number of replacements
system.l3.tags.pwrStateResidencyTicks::UNDEFINED  92225317000                       # Cumulative time (in ticks) in various power states
system.l3.tags.tagsinuse                  3952.978041                       # Cycle average of tags in use
system.l3.tags.total_refs                       46178                       # Total number of references to valid blocks.
system.l3.tags.sampled_refs                     22431                       # Sample count of references to valid blocks.
system.l3.tags.avg_refs                      2.058669                       # Average number of references to valid blocks.
system.l3.tags.warmup_cycle                    418000                       # Cycle when the warmup percentage was hit.
system.l3.tags.occ_blocks::writebacks      895.466152                       # Average occupied blocks per requestor
system.l3.tags.occ_blocks::cpu.inst         25.796849                       # Average occupied blocks per requestor
system.l3.tags.occ_blocks::cpu.data       3031.715039                       # Average occupied blocks per requestor
system.l3.tags.occ_percent::writebacks       0.218620                       # Average percentage of cache occupancy
system.l3.tags.occ_percent::cpu.inst         0.006298                       # Average percentage of cache occupancy
system.l3.tags.occ_percent::cpu.data         0.740165                       # Average percentage of cache occupancy
system.l3.tags.occ_percent::total            0.965083                       # Average percentage of cache occupancy
system.l3.tags.occ_task_id_blocks::1024          4096                       # Occupied blocks per task id
system.l3.tags.age_task_id_blocks_1024::0           34                       # Occupied blocks per task id
system.l3.tags.age_task_id_blocks_1024::1          109                       # Occupied blocks per task id
system.l3.tags.age_task_id_blocks_1024::3            3                       # Occupied blocks per task id
system.l3.tags.age_task_id_blocks_1024::4         3950                       # Occupied blocks per task id
system.l3.tags.occ_task_id_percent::1024            1                       # Percentage of cache occupancy per task id
system.l3.tags.tag_accesses                 189237151                       # Number of tag accesses
system.l3.tags.data_accesses                189237151                       # Number of data accesses
system.l3.pwrStateResidencyTicks::UNDEFINED  92225317000                       # Cumulative time (in ticks) in various power states
system.l3.WritebackDirty_hits::writebacks        21784                       # number of WritebackDirty hits
system.l3.WritebackDirty_hits::total            21784                       # number of WritebackDirty hits
system.l3.ReadExReq_hits::cpu.data                 39                       # number of ReadExReq hits
system.l3.ReadExReq_hits::total                    39                       # number of ReadExReq hits
system.l3.ReadSharedReq_hits::cpu.data           7614                       # number of ReadSharedReq hits
system.l3.ReadSharedReq_hits::total              7614                       # number of ReadSharedReq hits
system.l3.demand_hits::cpu.data                  7653                       # number of demand (read+write) hits
system.l3.demand_hits::total                     7653                       # number of demand (read+write) hits
system.l3.overall_hits::cpu.data                 7653                       # number of overall hits
system.l3.overall_hits::total                    7653                       # number of overall hits
system.l3.ReadExReq_misses::cpu.data             6402                       # number of ReadExReq misses
system.l3.ReadExReq_misses::total                6402                       # number of ReadExReq misses
system.l3.ReadSharedReq_misses::cpu.inst          418                       # number of ReadSharedReq misses
system.l3.ReadSharedReq_misses::cpu.data         9772                       # number of ReadSharedReq misses
system.l3.ReadSharedReq_misses::total           10190                       # number of ReadSharedReq misses
system.l3.demand_misses::cpu.inst                 418                       # number of demand (read+write) misses
system.l3.demand_misses::cpu.data               16174                       # number of demand (read+write) misses
system.l3.demand_misses::total                  16592                       # number of demand (read+write) misses
system.l3.overall_misses::cpu.inst                418                       # number of overall misses
system.l3.overall_misses::cpu.data              16174                       # number of overall misses
system.l3.overall_misses::total                 16592                       # number of overall misses
system.l3.ReadExReq_miss_latency::cpu.data    946811000                       # number of ReadExReq miss cycles
system.l3.ReadExReq_miss_latency::total     946811000                       # number of ReadExReq miss cycles
system.l3.ReadSharedReq_miss_latency::cpu.inst     88066000                       # number of ReadSharedReq miss cycles
system.l3.ReadSharedReq_miss_latency::cpu.data   3611568000                       # number of ReadSharedReq miss cycles
system.l3.ReadSharedReq_miss_latency::total   3699634000                       # number of ReadSharedReq miss cycles
system.l3.demand_miss_latency::cpu.inst      88066000                       # number of demand (read+write) miss cycles
system.l3.demand_miss_latency::cpu.data    4558379000                       # number of demand (read+write) miss cycles
system.l3.demand_miss_latency::total       4646445000                       # number of demand (read+write) miss cycles
system.l3.overall_miss_latency::cpu.inst     88066000                       # number of overall miss cycles
system.l3.overall_miss_latency::cpu.data   4558379000                       # number of overall miss cycles
system.l3.overall_miss_latency::total      4646445000                       # number of overall miss cycles
system.l3.WritebackDirty_accesses::writebacks        21784                       # number of WritebackDirty accesses(hits+misses)
system.l3.WritebackDirty_accesses::total        21784                       # number of WritebackDirty accesses(hits+misses)
system.l3.ReadExReq_accesses::cpu.data           6441                       # number of ReadExReq accesses(hits+misses)
system.l3.ReadExReq_accesses::total              6441                       # number of ReadExReq accesses(hits+misses)
system.l3.ReadSharedReq_accesses::cpu.inst          418                       # number of ReadSharedReq accesses(hits+misses)
system.l3.ReadSharedReq_accesses::cpu.data        17386                       # number of ReadSharedReq accesses(hits+misses)
system.l3.ReadSharedReq_accesses::total         17804                       # number of ReadSharedReq accesses(hits+misses)
system.l3.demand_accesses::cpu.inst               418                       # number of demand (read+write) accesses
system.l3.demand_accesses::cpu.data             23827                       # number of demand (read+write) accesses
system.l3.demand_accesses::total                24245                       # number of demand (read+write) accesses
system.l3.overall_accesses::cpu.inst              418                       # number of overall (read+write) accesses
system.l3.overall_accesses::cpu.data            23827                       # number of overall (read+write) accesses
system.l3.overall_accesses::total               24245                       # number of overall (read+write) accesses
system.l3.ReadExReq_miss_rate::cpu.data      0.993945                       # miss rate for ReadExReq accesses
system.l3.ReadExReq_miss_rate::total         0.993945                       # miss rate for ReadExReq accesses
system.l3.ReadSharedReq_miss_rate::cpu.inst            1                       # miss rate for ReadSharedReq accesses
system.l3.ReadSharedReq_miss_rate::cpu.data     0.562061                       # miss rate for ReadSharedReq accesses
system.l3.ReadSharedReq_miss_rate::total     0.572343                       # miss rate for ReadSharedReq accesses
system.l3.demand_miss_rate::cpu.inst                1                       # miss rate for demand accesses
system.l3.demand_miss_rate::cpu.data         0.678810                       # miss rate for demand accesses
system.l3.demand_miss_rate::total            0.684347                       # miss rate for demand accesses
system.l3.overall_miss_rate::cpu.inst               1                       # miss rate for overall accesses
system.l3.overall_miss_rate::cpu.data        0.678810                       # miss rate for overall accesses
system.l3.overall_miss_rate::total           0.684347                       # miss rate for overall accesses
system.l3.ReadExReq_avg_miss_latency::cpu.data 147893.002187                       # average ReadExReq miss latency
system.l3.ReadExReq_avg_miss_latency::total 147893.002187                       # average ReadExReq miss latency
system.l3.ReadSharedReq_avg_miss_latency::cpu.inst 210684.210526                       # average ReadSharedReq miss latency
system.l3.ReadSharedReq_avg_miss_latency::cpu.data 369583.299222                       # average ReadSharedReq miss latency
system.l3.ReadSharedReq_avg_miss_latency::total 363065.161923                       # average ReadSharedReq miss latency
system.l3.demand_avg_miss_latency::cpu.inst 210684.210526                       # average overall miss latency
system.l3.demand_avg_miss_latency::cpu.data 281833.745517                       # average overall miss latency
system.l3.demand_avg_miss_latency::total 280041.284957                       # average overall miss latency
system.l3.overall_avg_miss_latency::cpu.inst 210684.210526                       # average overall miss latency
system.l3.overall_avg_miss_latency::cpu.data 281833.745517                       # average overall miss latency
system.l3.overall_avg_miss_latency::total 280041.284957                       # average overall miss latency
system.l3.blocked_cycles::no_mshrs                  0                       # number of cycles access was blocked
system.l3.blocked_cycles::no_targets                0                       # number of cycles access was blocked
system.l3.blocked::no_mshrs                         0                       # number of cycles access was blocked
system.l3.blocked::no_targets                       0                       # number of cycles access was blocked
system.l3.avg_blocked_cycles::no_mshrs            nan                       # average number of cycles each access was blocked
system.l3.avg_blocked_cycles::no_targets          nan                       # average number of cycles each access was blocked
system.l3.writebacks::writebacks                12065                       # number of writebacks
system.l3.writebacks::total                     12065                       # number of writebacks
system.l3.CleanEvict_mshr_misses::writebacks           17                       # number of CleanEvict MSHR misses
system.l3.CleanEvict_mshr_misses::total            17                       # number of CleanEvict MSHR misses
system.l3.ReadExReq_mshr_misses::cpu.data         6402                       # number of ReadExReq MSHR misses
system.l3.ReadExReq_mshr_misses::total           6402                       # number of ReadExReq MSHR misses
system.l3.ReadSharedReq_mshr_misses::cpu.inst          418                       # number of ReadSharedReq MSHR misses
system.l3.ReadSharedReq_mshr_misses::cpu.data         9772                       # number of ReadSharedReq MSHR misses
system.l3.ReadSharedReq_mshr_misses::total        10190                       # number of ReadSharedReq MSHR misses
system.l3.demand_mshr_misses::cpu.inst            418                       # number of demand (read+write) MSHR misses
system.l3.demand_mshr_misses::cpu.data          16174                       # number of demand (read+write) MSHR misses
system.l3.demand_mshr_misses::total             16592                       # number of demand (read+write) MSHR misses
system.l3.overall_mshr_misses::cpu.inst           418                       # number of overall MSHR misses
system.l3.overall_mshr_misses::cpu.data         16174                       # number of overall MSHR misses
system.l3.overall_mshr_misses::total            16592                       # number of overall MSHR misses
system.l3.ReadExReq_mshr_miss_latency::cpu.data    882791000                       # number of ReadExReq MSHR miss cycles
system.l3.ReadExReq_mshr_miss_latency::total    882791000                       # number of ReadExReq MSHR miss cycles
system.l3.ReadSharedReq_mshr_miss_latency::cpu.inst     83886000                       # number of ReadSharedReq MSHR miss cycles
system.l3.ReadSharedReq_mshr_miss_latency::cpu.data   3513848000                       # number of ReadSharedReq MSHR miss cycles
system.l3.ReadSharedReq_mshr_miss_latency::total   3597734000                       # number of ReadSharedReq MSHR miss cycles
system.l3.demand_mshr_miss_latency::cpu.inst     83886000                       # number of demand (read+write) MSHR miss cycles
system.l3.demand_mshr_miss_latency::cpu.data   4396639000                       # number of demand (read+write) MSHR miss cycles
system.l3.demand_mshr_miss_latency::total   4480525000                       # number of demand (read+write) MSHR miss cycles
system.l3.overall_mshr_miss_latency::cpu.inst     83886000                       # number of overall MSHR miss cycles
system.l3.overall_mshr_miss_latency::cpu.data   4396639000                       # number of overall MSHR miss cycles
system.l3.overall_mshr_miss_latency::total   4480525000                       # number of overall MSHR miss cycles
system.l3.CleanEvict_mshr_miss_rate::writebacks          inf                       # mshr miss rate for CleanEvict accesses
system.l3.CleanEvict_mshr_miss_rate::total          inf                       # mshr miss rate for CleanEvict accesses
system.l3.ReadExReq_mshr_miss_rate::cpu.data     0.993945                       # mshr miss rate for ReadExReq accesses
system.l3.ReadExReq_mshr_miss_rate::total     0.993945                       # mshr miss rate for ReadExReq accesses
system.l3.ReadSharedReq_mshr_miss_rate::cpu.inst            1                       # mshr miss rate for ReadSharedReq accesses
system.l3.ReadSharedReq_mshr_miss_rate::cpu.data     0.562061                       # mshr miss rate for ReadSharedReq accesses
system.l3.ReadSharedReq_mshr_miss_rate::total     0.572343                       # mshr miss rate for ReadSharedReq accesses
system.l3.demand_mshr_miss_rate::cpu.inst            1                       # mshr miss rate for demand accesses
system.l3.demand_mshr_miss_rate::cpu.data     0.678810                       # mshr miss rate for demand accesses
system.l3.demand_mshr_miss_rate::total       0.684347                       # mshr miss rate for demand accesses
system.l3.overall_mshr_miss_rate::cpu.inst            1                       # mshr miss rate for overall accesses
system.l3.overall_mshr_miss_rate::cpu.data     0.678810                       # mshr miss rate for overall accesses
system.l3.overall_mshr_miss_rate::total      0.684347                       # mshr miss rate for overall accesses
system.l3.ReadExReq_avg_mshr_miss_latency::cpu.data 137893.002187                       # average ReadExReq mshr miss latency
system.l3.ReadExReq_avg_mshr_miss_latency::total 137893.002187                       # average ReadExReq mshr miss latency
system.l3.ReadSharedReq_avg_mshr_miss_latency::cpu.inst 200684.210526                       # average ReadSharedReq mshr miss latency
system.l3.ReadSharedReq_avg_mshr_miss_latency::cpu.data 359583.299222                       # average ReadSharedReq mshr miss latency
system.l3.ReadSharedReq_avg_mshr_miss_latency::total 353065.161923                       # average ReadSharedReq mshr miss latency
system.l3.demand_avg_mshr_miss_latency::cpu.inst 200684.210526                       # average overall mshr miss latency
system.l3.demand_avg_mshr_miss_latency::cpu.data 271833.745517                       # average overall mshr miss latency
system.l3.demand_avg_mshr_miss_latency::total 270041.284957                       # average overall mshr miss latency
system.l3.overall_avg_mshr_miss_latency::cpu.inst 200684.210526                       # average overall mshr miss latency
system.l3.overall_avg_mshr_miss_latency::cpu.data 271833.745517                       # average overall mshr miss latency
system.l3.overall_avg_mshr_miss_latency::total 270041.284957                       # average overall mshr miss latency
system.l3.replacements                          18335                       # number of replacements
system.membus.snoop_filter.tot_requests         30500                       # Total number of requests made to the snoop filter.
system.membus.snoop_filter.hit_single_requests        13908                       # Number of requests hitting in the snoop filter with a single holder of the requested data.
system.membus.snoop_filter.hit_multi_requests            0                       # Number of requests hitting in the snoop filter with multiple (>1) holders of the requested data.
system.membus.snoop_filter.tot_snoops               0                       # Total number of snoops made to the snoop filter.
system.membus.snoop_filter.hit_single_snoops            0                       # Number of snoops hitting in the snoop filter with a single holder of the requested data.
system.membus.snoop_filter.hit_multi_snoops            0                       # Number of snoops hitting in the snoop filter with multiple (>1) holders of the requested data.
system.membus.pwrStateResidencyTicks::UNDEFINED  92225317000                       # Cumulative time (in ticks) in various power states
system.membus.trans_dist::ReadResp              10190                       # Transaction distribution
system.membus.trans_dist::WritebackDirty        12065                       # Transaction distribution
system.membus.trans_dist::CleanEvict              115                       # Transaction distribution
system.membus.trans_dist::ReadExReq              6402                       # Transaction distribution
system.membus.trans_dist::ReadExResp             6402                       # Transaction distribution
system.membus.trans_dist::ReadSharedReq         10190                       # Transaction distribution
system.membus.pkt_count_system.l3.mem_side::system.mem_ctrls.port        45364                       # Packet count per connected master and slave (bytes)
system.membus.pkt_count_system.l3.mem_side::total        45364                       # Packet count per connected master and slave (bytes)
system.membus.pkt_count::total                  45364                       # Packet count per connected master and slave (bytes)
system.membus.pkt_size_system.l3.mem_side::system.mem_ctrls.port      1834048                       # Cumulative packet size per connected master and slave (bytes)
system.membus.pkt_size_system.l3.mem_side::total      1834048                       # Cumulative packet size per connected master and slave (bytes)
system.membus.pkt_size::total                 1834048                       # Cumulative packet size per connected master and slave (bytes)
system.membus.snoops                                0                       # Total snoops (count)
system.membus.snoopTraffic                          0                       # Total snoop traffic (bytes)
system.membus.snoop_fanout::samples             16592                       # Request fanout histogram
system.membus.snoop_fanout::mean                    0                       # Request fanout histogram
system.membus.snoop_fanout::stdev                   0                       # Request fanout histogram
system.membus.snoop_fanout::underflows              0      0.00%      0.00% # Request fanout histogram
system.membus.snoop_fanout::0                   16592    100.00%    100.00% # Request fanout histogram
system.membus.snoop_fanout::1                       0      0.00%    100.00% # Request fanout histogram
system.membus.snoop_fanout::overflows               0      0.00%    100.00% # Request fanout histogram
system.membus.snoop_fanout::min_value               0                       # Request fanout histogram
system.membus.snoop_fanout::max_value               0                       # Request fanout histogram
system.membus.snoop_fanout::total               16592                       # Request fanout histogram
system.membus.reqLayer2.occupancy            78765000                       # Layer occupancy (ticks)
system.membus.reqLayer2.utilization               0.1                       # Layer utilization (%)
system.membus.respLayer1.occupancy           82965000                       # Layer occupancy (ticks)
system.membus.respLayer1.utilization              0.1                       # Layer utilization (%)
system.tol2bus.snoop_filter.tot_requests        97418                       # Total number of requests made to the snoop filter.
system.tol2bus.snoop_filter.hit_single_requests        51554                       # Number of requests hitting in the snoop filter with a single holder of the requested data.
system.tol2bus.snoop_filter.hit_multi_requests            0                       # Number of requests hitting in the snoop filter with multiple (>1) holders of the requested data.
system.tol2bus.snoop_filter.tot_snoops            840                       # Total number of snoops made to the snoop filter.
system.tol2bus.snoop_filter.hit_single_snoops          840                       # Number of snoops hitting in the snoop filter with a single holder of the requested data.
system.tol2bus.snoop_filter.hit_multi_snoops            0                       # Number of snoops hitting in the snoop filter with multiple (>1) holders of the requested data.
system.tol2bus.pwrStateResidencyTicks::UNDEFINED  92225317000                       # Cumulative time (in ticks) in various power states
system.tol2bus.trans_dist::ReadResp             39164                       # Transaction distribution
system.tol2bus.trans_dist::WritebackDirty        65217                       # Transaction distribution
system.tol2bus.trans_dist::WritebackClean           73                       # Transaction distribution
system.tol2bus.trans_dist::CleanEvict            8134                       # Transaction distribution
system.tol2bus.trans_dist::UpgradeReq            6549                       # Transaction distribution
system.tol2bus.trans_dist::UpgradeResp           6549                       # Transaction distribution
system.tol2bus.trans_dist::ReadExReq             6700                       # Transaction distribution
system.tol2bus.trans_dist::ReadExResp            6700                       # Transaction distribution
system.tol2bus.trans_dist::ReadCleanReq           420                       # Transaction distribution
system.tol2bus.trans_dist::ReadSharedReq        38744                       # Transaction distribution
system.tol2bus.pkt_count_system.cpu.icache.mem_side::system.l2.cpu_side          913                       # Packet count per connected master and slave (bytes)
system.tol2bus.pkt_count_system.cpu.dcache.mem_side::system.l2.cpu_side       148918                       # Packet count per connected master and slave (bytes)
system.tol2bus.pkt_count::total                149831                       # Packet count per connected master and slave (bytes)
system.tol2bus.pkt_size_system.cpu.icache.mem_side::system.l2.cpu_side        31552                       # Cumulative packet size per connected master and slave (bytes)
system.tol2bus.pkt_size_system.cpu.dcache.mem_side::system.l2.cpu_side      5688128                       # Cumulative packet size per connected master and slave (bytes)
system.tol2bus.pkt_size::total                5719680                       # Cumulative packet size per connected master and slave (bytes)
system.tol2bus.snoops                           28419                       # Total snoops (count)
system.tol2bus.snoopTraffic                   1394176                       # Total snoop traffic (bytes)
system.tol2bus.snoop_fanout::samples            80832                       # Request fanout histogram
system.tol2bus.snoop_fanout::mean            0.010392                       # Request fanout histogram
system.tol2bus.snoop_fanout::stdev           0.101410                       # Request fanout histogram
system.tol2bus.snoop_fanout::underflows             0      0.00%      0.00% # Request fanout histogram
system.tol2bus.snoop_fanout::0                  79992     98.96%     98.96% # Request fanout histogram
system.tol2bus.snoop_fanout::1                    840      1.04%    100.00% # Request fanout histogram
system.tol2bus.snoop_fanout::2                      0      0.00%    100.00% # Request fanout histogram
system.tol2bus.snoop_fanout::3                      0      0.00%    100.00% # Request fanout histogram
system.tol2bus.snoop_fanout::4                      0      0.00%    100.00% # Request fanout histogram
system.tol2bus.snoop_fanout::overflows              0      0.00%    100.00% # Request fanout histogram
system.tol2bus.snoop_fanout::min_value              0                       # Request fanout histogram
system.tol2bus.snoop_fanout::max_value              1                       # Request fanout histogram
system.tol2bus.snoop_fanout::total              80832                       # Request fanout histogram
system.tol2bus.reqLayer0.occupancy           92215000                       # Layer occupancy (ticks)
system.tol2bus.reqLayer0.utilization              0.1                       # Layer utilization (%)
system.tol2bus.respLayer0.occupancy            630000                       # Layer occupancy (ticks)
system.tol2bus.respLayer0.utilization             0.0                       # Layer utilization (%)
system.tol2bus.respLayer1.occupancy          71440500                       # Layer occupancy (ticks)
system.tol2bus.respLayer1.utilization             0.1                       # Layer utilization (%)
system.tol3bus.snoop_filter.tot_requests        46195                       # Total number of requests made to the snoop filter.
system.tol3bus.snoop_filter.hit_single_requests        21950                       # Number of requests hitting in the snoop filter with a single holder of the requested data.
system.tol3bus.snoop_filter.hit_multi_requests            0                       # Number of requests hitting in the snoop filter with multiple (>1) holders of the requested data.
system.tol3bus.snoop_filter.tot_snoops           6172                       # Total number of snoops made to the snoop filter.
system.tol3bus.snoop_filter.hit_single_snoops         6172                       # Number of snoops hitting in the snoop filter with a single holder of the requested data.
system.tol3bus.snoop_filter.hit_multi_snoops            0                       # Number of snoops hitting in the snoop filter with multiple (>1) holders of the requested data.
system.tol3bus.pwrStateResidencyTicks::UNDEFINED  92225317000                       # Cumulative time (in ticks) in various power states
system.tol3bus.trans_dist::ReadResp             17804                       # Transaction distribution
system.tol3bus.trans_dist::WritebackDirty        33849                       # Transaction distribution
system.tol3bus.trans_dist::CleanEvict            6436                       # Transaction distribution
system.tol3bus.trans_dist::ReadExReq             6441                       # Transaction distribution
system.tol3bus.trans_dist::ReadExResp            6441                       # Transaction distribution
system.tol3bus.trans_dist::ReadSharedReq        17804                       # Transaction distribution
system.tol3bus.pkt_count_system.l2.mem_side::system.l3.cpu_side        70440                       # Packet count per connected master and slave (bytes)
system.tol3bus.pkt_size_system.l2.mem_side::system.l3.cpu_side      2945856                       # Cumulative packet size per connected master and slave (bytes)
system.tol3bus.snoops                           18335                       # Total snoops (count)
system.tol3bus.snoopTraffic                    772160                       # Total snoop traffic (bytes)
system.tol3bus.snoop_fanout::samples            42580                       # Request fanout histogram
system.tol3bus.snoop_fanout::mean            0.144951                       # Request fanout histogram
system.tol3bus.snoop_fanout::stdev           0.352055                       # Request fanout histogram
system.tol3bus.snoop_fanout::underflows             0      0.00%      0.00% # Request fanout histogram
system.tol3bus.snoop_fanout::0                  36408     85.50%     85.50% # Request fanout histogram
system.tol3bus.snoop_fanout::1                   6172     14.50%    100.00% # Request fanout histogram
system.tol3bus.snoop_fanout::overflows              0      0.00%    100.00% # Request fanout histogram
system.tol3bus.snoop_fanout::min_value              0                       # Request fanout histogram
system.tol3bus.snoop_fanout::max_value              1                       # Request fanout histogram
system.tol3bus.snoop_fanout::total              42580                       # Request fanout histogram
system.tol3bus.reqLayer0.occupancy           44881500                       # Layer occupancy (ticks)
system.tol3bus.reqLayer0.utilization              0.0                       # Layer utilization (%)
system.tol3bus.respLayer0.occupancy          36367500                       # Layer occupancy (ticks)
system.tol3bus.respLayer0.utilization             0.0                       # Layer utilization (%)

---------- End Simulation Statistics   ----------
